<?xml version="1.0" encoding="UTF-8"?>

<!-- generated on 2022-06-20 00:16:43 by Eclipse SUMO duarouter Version 1.12.0
<configuration xmlns:xsi="http://www.w3.org/2001/XMLSchema-instance" xsi:noNamespaceSchemaLocation="http://sumo.dlr.de/xsd/duarouterConfiguration.xsd">

    <input>
        <net-file value="sumo/simulation.net.xml"/>
        <route-files value="sumo/simulation.trips.xml"/>
    </input>

    <output>
        <output-file value="sumo/simulation.rou.xml"/>
        <alternatives-output value="sumo/simulation.rou.alt.xml"/>
    </output>

    <time>
        <begin value="0"/>
        <end value="1350"/>
    </time>

    <report>
        <no-warnings value="true"/>
        <ignore-errors value="true"/>
        <no-step-log value="true"/>
    </report>

</configuration>
-->

<routes xmlns:xsi="http://www.w3.org/2001/XMLSchema-instance" xsi:noNamespaceSchemaLocation="http://sumo.dlr.de/xsd/routes_file.xsd">
    <vehicle id="0" depart="3.00">
        <route edges="26586627#0.146 37850957#0"/>
    </vehicle>
    <vehicle id="1" depart="4.00">
        <route edges="85640909#2 37850958#0"/>
    </vehicle>
    <vehicle id="3" depart="10.00">
        <route edges="-37850957#0 -26586627#2"/>
    </vehicle>
    <vehicle id="4" depart="12.00">
        <route edges="85640909#2 -26586627#2"/>
    </vehicle>
    <vehicle id="7" depart="14.00">
        <route edges="-37850957#0 -26586627#2"/>
    </vehicle>
    <vehicle id="8" depart="15.00">
        <route edges="85640909#2 37850958#0"/>
    </vehicle>
    <vehicle id="9" depart="15.00">
        <route edges="26586627#0.146 37850957#0"/>
    </vehicle>
    <vehicle id="10" depart="16.00">
        <route edges="-37850958#2 -85640909#2"/>
    </vehicle>
    <vehicle id="12" depart="18.00">
        <route edges="26586627#0.146 37850957#0"/>
    </vehicle>
    <vehicle id="13" depart="21.00">
        <route edges="-37850957#0 37850958#0"/>
    </vehicle>
    <vehicle id="14" depart="23.00">
        <route edges="-37850957#0 37850958#0"/>
    </vehicle>
    <vehicle id="18" depart="38.00">
        <route edges="26586627#0.146 -85640909#2"/>
    </vehicle>
    <vehicle id="21" depart="46.00">
        <route edges="26586627#0.146 37850957#0"/>
    </vehicle>
    <vehicle id="23" depart="48.00">
        <route edges="-37850957#0 -26586627#2"/>
    </vehicle>
    <vehicle id="24" depart="49.00">
        <route edges="-37850957#0 37850958#0"/>
    </vehicle>
    <vehicle id="25" depart="51.00">
        <route edges="26586627#0.146 37850957#0"/>
    </vehicle>
    <vehicle id="27" depart="53.00">
        <route edges="-37850957#0 37850958#0"/>
    </vehicle>
    <vehicle id="29" depart="54.00">
        <route edges="26586627#0.146 37850957#0"/>
    </vehicle>
    <vehicle id="32" depart="57.00">
        <route edges="-37850957#0 -85640909#2"/>
    </vehicle>
    <vehicle id="34" depart="60.00">
        <route edges="-37850957#0 37850958#0"/>
    </vehicle>
    <vehicle id="35" depart="61.00">
        <route edges="26586627#0.146 37850957#0"/>
    </vehicle>
    <vehicle id="36" depart="62.00">
        <route edges="26586627#0.146 37850957#0"/>
    </vehicle>
    <vehicle id="38" depart="67.00">
        <route edges="-37850958#2 -85640909#2"/>
    </vehicle>
    <vehicle id="39" depart="69.00">
        <route edges="-37850957#0 -26586627#2"/>
    </vehicle>
    <vehicle id="40" depart="69.00">
        <route edges="-37850957#0 -85640909#2"/>
    </vehicle>
    <vehicle id="42" depart="77.00">
        <route edges="85640909#2 37850958#0"/>
    </vehicle>
    <vehicle id="43" depart="79.00">
        <route edges="-37850957#0 -85640909#2"/>
    </vehicle>
    <vehicle id="46" depart="82.00">
        <route edges="-37850957#0 -26586627#2"/>
    </vehicle>
    <vehicle id="51" depart="89.00">
        <route edges="-37850957#0 37850958#0"/>
    </vehicle>
    <vehicle id="53" depart="96.00">
        <route edges="85640909#2 -26586627#2"/>
    </vehicle>
    <vehicle id="54" depart="98.00">
        <route edges="26586627#0.146 -85640909#2"/>
    </vehicle>
    <vehicle id="55" depart="98.00">
        <route edges="85640909#2 37850958#0"/>
    </vehicle>
    <vehicle id="56" depart="99.00">
        <route edges="85640909#2 37850958#0"/>
    </vehicle>
    <vehicle id="57" depart="101.00">
        <route edges="85640909#2 37850958#0"/>
    </vehicle>
    <vehicle id="58" depart="104.00">
        <route edges="26586627#0.146 37850957#0"/>
    </vehicle>
    <vehicle id="59" depart="105.00">
        <route edges="26586627#0.146 -85640909#2"/>
    </vehicle>
    <vehicle id="60" depart="107.00">
        <route edges="26586627#0.146 37850957#0"/>
    </vehicle>
    <vehicle id="61" depart="107.00">
        <route edges="-37850957#0 37850958#0"/>
    </vehicle>
    <vehicle id="62" depart="109.00">
        <route edges="85640909#2 -26586627#2"/>
    </vehicle>
    <vehicle id="64" depart="113.00">
        <route edges="-37850957#0 -85640909#2"/>
    </vehicle>
    <vehicle id="67" depart="122.00">
        <route edges="-37850957#0 -85640909#2"/>
    </vehicle>
    <vehicle id="68" depart="123.00">
        <route edges="85640909#2 -26586627#2"/>
    </vehicle>
    <vehicle id="69" depart="126.00">
        <route edges="-37850958#2 -26586627#2"/>
    </vehicle>
    <vehicle id="70" depart="127.00">
        <route edges="26586627#0.146 -85640909#2"/>
    </vehicle>
    <vehicle id="72" depart="134.00">
        <route edges="-37850957#0 -26586627#2"/>
    </vehicle>
    <vehicle id="73" depart="135.00">
        <route edges="26586627#0.146 -85640909#2"/>
    </vehicle>
    <vehicle id="74" depart="136.00">
        <route edges="26586627#0.146 37850957#0"/>
    </vehicle>
    <vehicle id="75" depart="141.00">
        <route edges="-37850957#0 -85640909#2"/>
    </vehicle>
    <vehicle id="76" depart="143.00">
        <route edges="85640909#2 37850958#0"/>
    </vehicle>
    <vehicle id="79" depart="154.00">
        <route edges="85640909#2 37850957#0"/>
    </vehicle>
    <vehicle id="82" depart="155.00">
        <route edges="-37850957#0 37850958#0"/>
    </vehicle>
    <vehicle id="85" depart="161.00">
        <route edges="85640909#2 37850958#0"/>
    </vehicle>
    <vehicle id="86" depart="166.00">
        <route edges="-37850957#0 37850958#0"/>
    </vehicle>
    <vehicle id="88" depart="168.00">
        <route edges="-37850958#2 -85640909#2"/>
    </vehicle>
    <vehicle id="89" depart="170.00">
        <route edges="26586627#0.146 -85640909#2"/>
    </vehicle>
    <vehicle id="90" depart="171.00">
        <route edges="-37850958#2 -85640909#2"/>
    </vehicle>
    <vehicle id="91" depart="173.00">
        <route edges="85640909#2 37850957#0"/>
    </vehicle>
    <vehicle id="92" depart="182.00">
        <route edges="-37850957#0 37850958#0"/>
    </vehicle>
    <vehicle id="93" depart="184.00">
        <route edges="26586627#0.146 -85640909#2"/>
    </vehicle>
    <vehicle id="94" depart="184.00">
        <route edges="26586627#0.146 37850957#0"/>
    </vehicle>
    <vehicle id="95" depart="187.00">
        <route edges="-37850957#0 37850958#0"/>
    </vehicle>
    <vehicle id="96" depart="188.00">
        <route edges="-37850957#0 -85640909#2"/>
    </vehicle>
    <vehicle id="97" depart="190.00">
        <route edges="-37850958#2 -26586627#2"/>
    </vehicle>
    <vehicle id="98" depart="193.00">
        <route edges="-37850957#0 -26586627#2"/>
    </vehicle>
    <vehicle id="99" depart="194.00">
        <route edges="-37850957#0 -85640909#2"/>
    </vehicle>
    <vehicle id="100" depart="201.00">
        <route edges="-37850957#0 37850958#0"/>
    </vehicle>
    <vehicle id="101" depart="201.00">
        <route edges="26586627#0.146 -85640909#2"/>
    </vehicle>
    <vehicle id="102" depart="203.00">
        <route edges="-37850957#0 -26586627#2"/>
    </vehicle>
    <vehicle id="103" depart="204.00">
        <route edges="-37850957#0 -85640909#2"/>
    </vehicle>
    <vehicle id="105" depart="213.00">
        <route edges="85640909#2 -26586627#2"/>
    </vehicle>
    <vehicle id="107" depart="215.00">
        <route edges="26586627#0.146 37850957#0"/>
    </vehicle>
    <vehicle id="108" depart="215.00">
        <route edges="85640909#2 37850957#0"/>
    </vehicle>
    <vehicle id="111" depart="231.00">
        <route edges="26586627#0.146 -85640909#2"/>
    </vehicle>
    <vehicle id="112" depart="231.00">
        <route edges="85640909#2 37850958#0"/>
    </vehicle>
    <vehicle id="116" depart="237.00">
        <route edges="26586627#0.146 -85640909#2"/>
    </vehicle>
    <vehicle id="117" depart="238.00">
        <route edges="-37850957#0 -26586627#2"/>
    </vehicle>
    <vehicle id="118" depart="240.00">
        <route edges="85640909#2 37850958#0"/>
    </vehicle>
    <vehicle id="119" depart="242.00">
        <route edges="26586627#0.146 -85640909#2"/>
    </vehicle>
    <vehicle id="120" depart="244.00">
        <route edges="-37850957#0 37850958#0"/>
    </vehicle>
    <vehicle id="121" depart="245.00">
        <route edges="26586627#0.146 -85640909#2"/>
    </vehicle>
    <vehicle id="122" depart="246.00">
        <route edges="-37850957#0 -26586627#2"/>
    </vehicle>
    <vehicle id="123" depart="249.00">
        <route edges="-37850958#2 -26586627#2"/>
    </vehicle>
    <vehicle id="124" depart="249.00">
        <route edges="85640909#2 37850958#0"/>
    </vehicle>
    <vehicle id="125" depart="251.00">
        <route edges="26586627#0.146 -85640909#2"/>
    </vehicle>
    <vehicle id="126" depart="252.00">
        <route edges="-37850958#2 -85640909#2"/>
    </vehicle>
    <vehicle id="128" depart="253.00">
        <route edges="-37850958#2 -85640909#2"/>
    </vehicle>
    <vehicle id="129" depart="255.00">
        <route edges="-37850957#0 -26586627#2"/>
    </vehicle>
    <vehicle id="132" depart="263.00">
        <route edges="-37850957#0 37850958#0"/>
    </vehicle>
    <vehicle id="133" depart="268.00">
        <route edges="-37850957#0 -85640909#2"/>
    </vehicle>
    <vehicle id="135" depart="269.00">
        <route edges="26586627#0.146 37850957#0"/>
    </vehicle>
    <vehicle id="137" depart="274.00">
        <route edges="-37850957#0 37850958#0"/>
    </vehicle>
    <vehicle id="140" depart="279.00">
        <route edges="-37850958#2 -85640909#2"/>
    </vehicle>
    <vehicle id="141" depart="281.00">
        <route edges="-37850957#0 -26586627#2"/>
    </vehicle>
    <vehicle id="142" depart="282.00">
        <route edges="-37850957#0 -26586627#2"/>
    </vehicle>
    <vehicle id="146" depart="289.00">
        <route edges="-37850957#0 37850958#0"/>
    </vehicle>
    <vehicle id="147" depart="296.00">
        <route edges="85640909#2 -26586627#2"/>
    </vehicle>
    <vehicle id="148" depart="297.00">
        <route edges="-37850957#0 -26586627#2"/>
    </vehicle>
    <vehicle id="149" depart="299.00">
        <route edges="-37850957#0 -26586627#2"/>
    </vehicle>
    <vehicle id="150" depart="306.00">
        <route edges="26586627#0.146 -85640909#2"/>
    </vehicle>
    <vehicle id="151" depart="306.00">
        <route edges="26586627#0.146 37850957#0"/>
    </vehicle>
    <vehicle id="152" depart="307.00">
        <route edges="-37850957#0 -85640909#2"/>
    </vehicle>
    <vehicle id="153" depart="308.00">
        <route edges="-37850958#2 -85640909#2"/>
    </vehicle>
    <vehicle id="154" depart="309.00">
        <route edges="-37850957#0 -85640909#2"/>
    </vehicle>
    <vehicle id="159" depart="315.00">
        <route edges="-37850957#0 -26586627#2"/>
    </vehicle>
    <vehicle id="160" depart="317.00">
        <route edges="85640909#2 -26586627#2"/>
    </vehicle>
    <vehicle id="162" depart="322.00">
        <route edges="26586627#0.146 37850957#0"/>
    </vehicle>
    <vehicle id="163" depart="323.00">
        <route edges="-37850957#0 -26586627#2"/>
    </vehicle>
    <vehicle id="164" depart="323.00">
        <route edges="-37850957#0 -26586627#2"/>
    </vehicle>
    <vehicle id="165" depart="323.00">
        <route edges="85640909#2 37850958#0"/>
    </vehicle>
    <vehicle id="167" depart="325.00">
        <route edges="-37850957#0 37850958#0"/>
    </vehicle>
    <vehicle id="168" depart="326.00">
        <route edges="85640909#2 37850957#0"/>
    </vehicle>
    <vehicle id="169" depart="327.00">
        <route edges="-37850957#0 -26586627#2"/>
    </vehicle>
    <vehicle id="170" depart="332.00">
        <route edges="85640909#2 37850957#0"/>
    </vehicle>
    <vehicle id="171" depart="333.00">
        <route edges="85640909#2 37850957#0"/>
    </vehicle>
    <vehicle id="172" depart="337.00">
        <route edges="-37850957#0 -26586627#2"/>
    </vehicle>
    <vehicle id="173" depart="341.00">
        <route edges="85640909#2 37850957#0"/>
    </vehicle>
    <vehicle id="174" depart="342.00">
        <route edges="85640909#2 -26586627#2"/>
    </vehicle>
    <vehicle id="176" depart="349.00">
        <route edges="-37850957#0 37850958#0"/>
    </vehicle>
    <vehicle id="177" depart="351.00">
        <route edges="-37850957#0 -26586627#2"/>
    </vehicle>
    <vehicle id="179" depart="355.00">
        <route edges="26586627#0.146 -85640909#2"/>
    </vehicle>
    <vehicle id="180" depart="360.00">
        <route edges="-37850957#0 -85640909#2"/>
    </vehicle>
    <vehicle id="181" depart="364.00">
        <route edges="-37850957#0 -85640909#2"/>
    </vehicle>
    <vehicle id="182" depart="365.00">
        <route edges="-37850958#2 -26586627#2"/>
    </vehicle>
    <vehicle id="185" depart="375.00">
        <route edges="26586627#0.146 -85640909#2"/>
    </vehicle>
    <vehicle id="186" depart="375.00">
        <route edges="85640909#2 37850958#0"/>
    </vehicle>
    <vehicle id="187" depart="377.00">
        <route edges="26586627#0.146 37850957#0"/>
    </vehicle>
    <vehicle id="190" depart="382.00">
        <route edges="-37850957#0 -26586627#2"/>
    </vehicle>
    <vehicle id="191" depart="383.00">
        <route edges="26586627#0.146 37850957#0"/>
    </vehicle>
    <vehicle id="192" depart="383.00">
        <route edges="-37850957#0 37850958#0"/>
    </vehicle>
    <vehicle id="193" depart="384.00">
        <route edges="-37850957#0 -26586627#2"/>
    </vehicle>
    <vehicle id="194" depart="385.00">
        <route edges="-37850958#2 -26586627#2"/>
    </vehicle>
    <vehicle id="195" depart="385.00">
        <route edges="-37850957#0 -85640909#2"/>
    </vehicle>
    <vehicle id="196" depart="386.00">
        <route edges="-37850957#0 -26586627#2"/>
    </vehicle>
    <vehicle id="197" depart="386.00">
        <route edges="-37850957#0 -85640909#2"/>
    </vehicle>
    <vehicle id="198" depart="387.00">
        <route edges="-37850957#0 37850958#0"/>
    </vehicle>
    <vehicle id="199" depart="388.00">
        <route edges="85640909#2 37850958#0"/>
    </vehicle>
    <vehicle id="200" depart="389.00">
        <route edges="-37850957#0 -85640909#2"/>
    </vehicle>
    <vehicle id="201" depart="390.00">
        <route edges="85640909#2 -26586627#2"/>
    </vehicle>
    <vehicle id="204" depart="397.00">
        <route edges="85640909#2 -26586627#2"/>
    </vehicle>
    <vehicle id="205" depart="398.00">
        <route edges="26586627#0.146 -85640909#2"/>
    </vehicle>
    <vehicle id="206" depart="398.00">
        <route edges="85640909#2 37850957#0"/>
    </vehicle>
    <vehicle id="207" depart="400.00">
        <route edges="-37850957#0 -85640909#2"/>
    </vehicle>
    <vehicle id="210" depart="403.00">
        <route edges="-37850957#0 -85640909#2"/>
    </vehicle>
    <vehicle id="212" depart="409.00">
        <route edges="-37850957#0 -26586627#2"/>
    </vehicle>
    <vehicle id="213" depart="410.00">
        <route edges="26586627#0.146 -85640909#2"/>
    </vehicle>
    <vehicle id="214" depart="411.00">
        <route edges="-37850958#2 -85640909#2"/>
    </vehicle>
    <vehicle id="215" depart="414.00">
        <route edges="26586627#0.146 37850957#0"/>
    </vehicle>
    <vehicle id="216" depart="416.00">
        <route edges="-37850957#0 -26586627#2"/>
    </vehicle>
    <vehicle id="217" depart="417.00">
        <route edges="-37850958#2 -85640909#2"/>
    </vehicle>
    <vehicle id="219" depart="429.00">
        <route edges="26586627#0.146 37850957#0"/>
    </vehicle>
    <vehicle id="221" depart="433.00">
        <route edges="-37850957#0 -26586627#2"/>
    </vehicle>
    <vehicle id="224" depart="439.00">
        <route edges="-37850957#0 -26586627#2"/>
    </vehicle>
    <vehicle id="226" depart="441.00">
        <route edges="-37850957#0 -26586627#2"/>
    </vehicle>
    <vehicle id="227" depart="443.00">
        <route edges="-37850957#0 37850958#0"/>
    </vehicle>
    <vehicle id="228" depart="446.00">
        <route edges="-37850957#0 37850958#0"/>
    </vehicle>
    <vehicle id="229" depart="447.00">
        <route edges="-37850957#0 -85640909#2"/>
    </vehicle>
    <vehicle id="234" depart="452.00">
        <route edges="-37850957#0 -85640909#2"/>
    </vehicle>
    <vehicle id="236" depart="453.00">
        <route edges="-37850957#0 -85640909#2"/>
    </vehicle>
    <vehicle id="237" depart="458.00">
        <route edges="-37850957#0 -26586627#2"/>
    </vehicle>
    <vehicle id="240" depart="460.00">
        <route edges="26586627#0.146 37850957#0"/>
    </vehicle>
    <vehicle id="241" depart="461.00">
        <route edges="-37850958#2 -85640909#2"/>
    </vehicle>
    <vehicle id="242" depart="462.00">
        <route edges="-37850957#0 -26586627#2"/>
    </vehicle>
    <vehicle id="243" depart="462.00">
        <route edges="26586627#0.146 37850957#0"/>
    </vehicle>
    <vehicle id="245" depart="477.00">
        <route edges="26586627#0.146 -85640909#2"/>
    </vehicle>
    <vehicle id="246" depart="478.00">
        <route edges="-37850957#0 -85640909#2"/>
    </vehicle>
    <vehicle id="247" depart="482.00">
        <route edges="26586627#0.146 37850957#0"/>
    </vehicle>
    <vehicle id="248" depart="484.00">
        <route edges="85640909#2 37850958#0"/>
    </vehicle>
    <vehicle id="251" depart="496.00">
        <route edges="85640909#2 -26586627#2"/>
    </vehicle>
    <vehicle id="253" depart="505.00">
        <route edges="-37850958#2 -26586627#2"/>
    </vehicle>
    <vehicle id="254" depart="506.00">
        <route edges="85640909#2 -26586627#2"/>
    </vehicle>
    <vehicle id="260" depart="523.00">
        <route edges="26586627#0.146 37850957#0"/>
    </vehicle>
    <vehicle id="262" depart="525.00">
        <route edges="26586627#0.146 -85640909#2"/>
    </vehicle>
    <vehicle id="263" depart="525.00">
        <route edges="-37850957#0 37850958#0"/>
    </vehicle>
    <vehicle id="267" depart="539.00">
        <route edges="-37850958#2 -26586627#2"/>
    </vehicle>
    <vehicle id="269" depart="548.00">
        <route edges="-37850957#0 37850958#0"/>
    </vehicle>
    <vehicle id="270" depart="549.00">
        <route edges="-37850957#0 -26586627#2"/>
    </vehicle>
    <vehicle id="272" depart="554.00">
        <route edges="26586627#0.146 37850957#0"/>
    </vehicle>
    <vehicle id="273" depart="555.00">
        <route edges="85640909#2 37850957#0"/>
    </vehicle>
    <vehicle id="274" depart="555.00">
        <route edges="85640909#2 37850958#0"/>
    </vehicle>
    <vehicle id="275" depart="555.00">
        <route edges="-37850957#0 -85640909#2"/>
    </vehicle>
    <vehicle id="277" depart="556.00">
        <route edges="26586627#0.146 37850957#0"/>
    </vehicle>
    <vehicle id="279" depart="558.00">
        <route edges="-37850957#0 -26586627#2"/>
    </vehicle>
    <vehicle id="280" depart="558.00">
        <route edges="85640909#2 -26586627#2"/>
    </vehicle>
    <vehicle id="281" depart="560.00">
        <route edges="-37850957#0 -85640909#2"/>
    </vehicle>
    <vehicle id="284" depart="562.00">
        <route edges="-37850957#0 37850958#0"/>
    </vehicle>
    <vehicle id="285" depart="565.00">
        <route edges="26586627#0.146 37850957#0"/>
    </vehicle>
    <vehicle id="286" depart="571.00">
        <route edges="26586627#0.146 37850957#0"/>
    </vehicle>
    <vehicle id="287" depart="573.00">
        <route edges="26586627#0.146 -85640909#2"/>
    </vehicle>
    <vehicle id="289" depart="577.00">
        <route edges="26586627#0.146 -85640909#2"/>
    </vehicle>
    <vehicle id="290" depart="577.00">
        <route edges="26586627#0.146 37850957#0"/>
    </vehicle>
    <vehicle id="292" depart="582.00">
        <route edges="-37850957#0 -85640909#2"/>
    </vehicle>
    <vehicle id="293" depart="586.00">
        <route edges="85640909#2 37850957#0"/>
    </vehicle>
    <vehicle id="294" depart="586.00">
        <route edges="26586627#0.146 37850957#0"/>
    </vehicle>
    <vehicle id="296" depart="591.00">
        <route edges="-37850958#2 -85640909#2"/>
    </vehicle>
    <vehicle id="297" depart="593.00">
        <route edges="85640909#2 37850958#0"/>
    </vehicle>
    <vehicle id="298" depart="594.00">
        <route edges="26586627#0.146 37850957#0"/>
    </vehicle>
    <vehicle id="299" depart="598.00">
        <route edges="85640909#2 37850957#0"/>
    </vehicle>
    <vehicle id="300" depart="599.00">
        <route edges="85640909#2 37850957#0"/>
    </vehicle>
    <vehicle id="301" depart="600.00">
        <route edges="-37850957#0 -85640909#2"/>
    </vehicle>
    <vehicle id="302" depart="600.00">
        <route edges="26586627#0.146 -85640909#2"/>
    </vehicle>
    <vehicle id="304" depart="601.00">
        <route edges="26586627#0.146 -85640909#2"/>
    </vehicle>
    <vehicle id="305" depart="602.00">
        <route edges="85640909#2 -26586627#2"/>
    </vehicle>
    <vehicle id="306" depart="604.00">
        <route edges="-37850957#0 -26586627#2"/>
    </vehicle>
    <vehicle id="307" depart="607.00">
        <route edges="85640909#2 37850957#0"/>
    </vehicle>
    <vehicle id="310" depart="609.00">
        <route edges="26586627#0.146 -85640909#2"/>
    </vehicle>
    <vehicle id="313" depart="616.00">
        <route edges="-37850957#0 -85640909#2"/>
    </vehicle>
    <vehicle id="314" depart="617.00">
        <route edges="-37850957#0 37850958#0"/>
    </vehicle>
    <vehicle id="317" depart="633.00">
        <route edges="-37850957#0 -85640909#2"/>
    </vehicle>
    <vehicle id="318" depart="634.00">
        <route edges="-37850957#0 -26586627#2"/>
    </vehicle>
    <vehicle id="319" depart="635.00">
        <route edges="-37850957#0 -85640909#2"/>
    </vehicle>
    <vehicle id="320" depart="635.00">
        <route edges="-37850957#0 -85640909#2"/>
    </vehicle>
    <vehicle id="321" depart="638.00">
        <route edges="85640909#2 37850957#0"/>
    </vehicle>
    <vehicle id="323" depart="651.00">
        <route edges="26586627#0.146 -85640909#2"/>
    </vehicle>
    <vehicle id="326" depart="661.00">
        <route edges="-37850958#2 -26586627#2"/>
    </vehicle>
    <vehicle id="327" depart="661.00">
        <route edges="-37850957#0 37850958#0"/>
    </vehicle>
    <vehicle id="328" depart="663.00">
        <route edges="85640909#2 37850957#0"/>
    </vehicle>
    <vehicle id="331" depart="667.00">
        <route edges="-37850958#2 -85640909#2"/>
    </vehicle>
    <vehicle id="333" depart="667.00">
        <route edges="26586627#0.146 37850957#0"/>
    </vehicle>
    <vehicle id="334" depart="668.00">
        <route edges="-37850957#0 -26586627#2"/>
    </vehicle>
    <vehicle id="335" depart="669.00">
        <route edges="-37850957#0 -26586627#2"/>
    </vehicle>
    <vehicle id="336" depart="674.00">
        <route edges="26586627#0.146 -85640909#2"/>
    </vehicle>
    <vehicle id="337" depart="674.00">
        <route edges="-37850958#2 -26586627#2"/>
    </vehicle>
    <vehicle id="338" depart="674.00">
        <route edges="26586627#0.146 -85640909#2"/>
    </vehicle>
    <vehicle id="339" depart="676.00">
        <route edges="26586627#0.146 37850957#0"/>
    </vehicle>
    <vehicle id="340" depart="676.00">
        <route edges="-37850957#0 -85640909#2"/>
    </vehicle>
    <vehicle id="342" depart="678.00">
        <route edges="85640909#2 37850958#0"/>
    </vehicle>
    <vehicle id="343" depart="679.00">
        <route edges="26586627#0.146 -85640909#2"/>
    </vehicle>
    <vehicle id="344" depart="680.00">
        <route edges="-37850957#0 -26586627#2"/>
    </vehicle>
    <vehicle id="345" depart="681.00">
        <route edges="26586627#0.146 37850957#0"/>
    </vehicle>
    <vehicle id="346" depart="689.00">
        <route edges="85640909#2 -26586627#2"/>
    </vehicle>
    <vehicle id="347" depart="692.00">
        <route edges="-37850957#0 -26586627#2"/>
    </vehicle>
    <vehicle id="348" depart="692.00">
        <route edges="85640909#2 -26586627#2"/>
    </vehicle>
    <vehicle id="349" depart="693.00">
        <route edges="85640909#2 -26586627#2"/>
    </vehicle>
    <vehicle id="351" depart="694.00">
        <route edges="-37850957#0 -85640909#2"/>
    </vehicle>
    <vehicle id="357" depart="706.00">
        <route edges="26586627#0.146 37850957#0"/>
    </vehicle>
    <vehicle id="359" depart="710.00">
        <route edges="-37850958#2 -85640909#2"/>
    </vehicle>
    <vehicle id="360" depart="714.00">
        <route edges="85640909#2 37850958#0"/>
    </vehicle>
    <vehicle id="361" depart="718.00">
        <route edges="-37850957#0 -85640909#2"/>
    </vehicle>
    <vehicle id="362" depart="720.00">
        <route edges="-37850957#0 -85640909#2"/>
    </vehicle>
    <vehicle id="363" depart="722.00">
        <route edges="-37850958#2 -26586627#2"/>
    </vehicle>
    <vehicle id="364" depart="723.00">
        <route edges="-37850957#0 37850958#0"/>
    </vehicle>
    <vehicle id="365" depart="723.00">
        <route edges="-37850958#2 -85640909#2"/>
    </vehicle>
    <vehicle id="366" depart="725.00">
        <route edges="-37850957#0 37850958#0"/>
    </vehicle>
    <vehicle id="367" depart="726.00">
        <route edges="-37850957#0 -26586627#2"/>
    </vehicle>
    <vehicle id="369" depart="729.00">
        <route edges="85640909#2 37850957#0"/>
    </vehicle>
    <vehicle id="370" depart="733.00">
        <route edges="-37850957#0 -85640909#2"/>
    </vehicle>
    <vehicle id="371" depart="733.00">
        <route edges="85640909#2 37850958#0"/>
    </vehicle>
    <vehicle id="372" depart="735.00">
        <route edges="26586627#0.146 37850957#0"/>
    </vehicle>
    <vehicle id="373" depart="746.00">
        <route edges="-37850957#0 37850958#0"/>
    </vehicle>
    <vehicle id="374" depart="746.00">
        <route edges="26586627#0.146 37850957#0"/>
    </vehicle>
    <vehicle id="376" depart="760.00">
        <route edges="85640909#2 37850957#0"/>
    </vehicle>
    <vehicle id="377" depart="761.00">
        <route edges="-37850957#0 37850958#0"/>
    </vehicle>
    <vehicle id="378" depart="762.00">
        <route edges="-37850957#0 -26586627#2"/>
    </vehicle>
    <vehicle id="384" depart="770.00">
        <route edges="-37850957#0 -26586627#2"/>
    </vehicle>
    <vehicle id="385" depart="770.00">
        <route edges="-37850957#0 -26586627#2"/>
    </vehicle>
    <vehicle id="387" depart="775.00">
        <route edges="-37850957#0 -85640909#2"/>
    </vehicle>
    <vehicle id="388" depart="783.00">
        <route edges="26586627#0.146 -85640909#2"/>
    </vehicle>
    <vehicle id="389" depart="787.00">
        <route edges="-37850957#0 -85640909#2"/>
    </vehicle>
    <vehicle id="390" depart="788.00">
        <route edges="26586627#0.146 -85640909#2"/>
    </vehicle>
    <vehicle id="393" depart="792.00">
        <route edges="26586627#0.146 37850957#0"/>
    </vehicle>
    <vehicle id="396" depart="795.00">
        <route edges="-37850958#2 -26586627#2"/>
    </vehicle>
    <vehicle id="397" depart="800.00">
        <route edges="-37850957#0 37850958#0"/>
    </vehicle>
    <vehicle id="399" depart="801.00">
        <route edges="26586627#0.146 37850957#0"/>
    </vehicle>
    <vehicle id="400" depart="806.00">
        <route edges="-37850958#2 -85640909#2"/>
    </vehicle>
    <vehicle id="401" depart="807.00">
        <route edges="-37850957#0 -26586627#2"/>
    </vehicle>
    <vehicle id="402" depart="808.00">
        <route edges="85640909#2 -26586627#2"/>
    </vehicle>
    <vehicle id="403" depart="810.00">
        <route edges="26586627#0.146 -85640909#2"/>
    </vehicle>
    <vehicle id="404" depart="816.00">
        <route edges="-37850957#0 37850958#0"/>
    </vehicle>
    <vehicle id="407" depart="831.00">
        <route edges="-37850957#0 37850958#0"/>
    </vehicle>
    <vehicle id="408" depart="832.00">
        <route edges="-37850957#0 -26586627#2"/>
    </vehicle>
    <vehicle id="409" depart="841.00">
        <route edges="85640909#2 -26586627#2"/>
    </vehicle>
    <vehicle id="410" depart="842.00">
        <route edges="85640909#2 37850958#0"/>
    </vehicle>
    <vehicle id="412" depart="849.00">
        <route edges="-37850957#0 37850958#0"/>
    </vehicle>
    <vehicle id="413" depart="849.00">
        <route edges="85640909#2 -26586627#2"/>
    </vehicle>
    <vehicle id="414" depart="853.00">
        <route edges="26586627#0.146 -85640909#2"/>
    </vehicle>
    <vehicle id="419" depart="861.00">
        <route edges="26586627#0.146 -85640909#2"/>
    </vehicle>
    <vehicle id="424" depart="871.00">
        <route edges="-37850958#2 -85640909#2"/>
    </vehicle>
    <vehicle id="426" depart="871.00">
        <route edges="-37850958#2 -26586627#2"/>
    </vehicle>
    <vehicle id="427" depart="871.00">
        <route edges="26586627#0.146 37850957#0"/>
    </vehicle>
    <vehicle id="428" depart="872.00">
        <route edges="-37850957#0 -26586627#2"/>
    </vehicle>
    <vehicle id="430" depart="876.00">
        <route edges="26586627#0.146 -85640909#2"/>
    </vehicle>
    <vehicle id="432" depart="878.00">
        <route edges="-37850957#0 37850958#0"/>
    </vehicle>
    <vehicle id="433" depart="879.00">