<?xml version="1.0" encoding="UTF-8"?>
<!-- generated on 2022-06-20 00:16:43.605333 by randomTrips.py UNKNOWN
  options: -n sumo/simulation.net.xml -r sumo/simulation.rou.xml -o sumo/simulation.trips.xml -e 1350 -p 2.002 <doubleminus>random-depart -L <doubleminus>random <doubleminus>angle 30
-->
<routes xmlns:xsi="http://www.w3.org/2001/XMLSchema-instance" xsi:noNamespaceSchemaLocation="http://sumo.dlr.de/xsd/routes_file.xsd">
    <trip id="0" depart="3.00" from="26586627#0.146" to="37850957#0"/>
    <trip id="1" depart="4.00" from="85640909#2" to="37850958#0"/>
    <trip id="2" depart="5.00" from="85640909#2" to="-85640909#2"/>
    <trip id="3" depart="10.00" from="-37850957#0" to="-26586627#2"/>
    <trip id="4" depart="12.00" from="85640909#2" to="-26586627#2"/>
    <trip id="5" depart="13.00" from="-37850958#2" to="37850957#0"/>
    <trip id="6" depart="13.00" from="26586627#0.146" to="-26586627#2"/>
    <trip id="7" depart="14.00" from="-37850957#0" to="-26586627#2"/>
    <trip id="8" depart="15.00" from="85640909#2" to="37850958#0"/>
    <trip id="9" depart="15.00" from="26586627#0.146" to="37850957#0"/>
    <trip id="10" depart="16.00" from="-37850958#2" to="-85640909#2"/>
    <trip id="11" depart="17.00" from="-37850957#0" to="37850957#0"/>
    <trip id="12" depart="18.00" from="26586627#0.146" to="37850957#0"/>
    <trip id="13" depart="21.00" from="-37850957#0" to="37850958#0"/>
    <trip id="14" depart="23.00" from="-37850957#0" to="37850958#0"/>
    <trip id="15" depart="31.00" from="-37850957#0" to="37850957#0"/>
    <trip id="16" depart="33.00" from="26586627#0.146" to="-26586627#2"/>
    <trip id="17" depart="33.00" from="-37850957#0" to="37850957#0"/>
    <trip id="18" depart="38.00" from="26586627#0.146" to="-85640909#2"/>
    <trip id="19" depart="40.00" from="-37850957#0" to="37850957#0"/>
    <trip id="20" depart="45.00" from="-37850958#2" to="37850958#0"/>
    <trip id="21" depart="46.00" from="26586627#0.146" to="37850957#0"/>
    <trip id="22" depart="46.00" from="26586627#0.146" to="37850958#0"/>
    <trip id="23" depart="48.00" from="-37850957#0" to="-26586627#2"/>
    <trip id="24" depart="49.00" from="-37850957#0" to="37850958#0"/>
    <trip id="25" depart="51.00" from="26586627#0.146" to="37850957#0"/>
    <trip id="26" depart="52.00" from="-37850957#0" to="37850957#0"/>
    <trip id="27" depart="53.00" from="-37850957#0" to="37850958#0"/>
    <trip id="28" depart="54.00" from="-37850957#0" to="37850957#0"/>
    <trip id="29" depart="54.00" from="26586627#0.146" to="37850957#0"/>
    <trip id="30" depart="54.00" from="26586627#0.146" to="-26586627#2"/>
    <trip id="31" depart="55.00" from="-37850957#0" to="37850957#0"/>
    <trip id="32" depart="57.00" from="-37850957#0" to="-85640909#2"/>
    <trip id="33" depart="58.00" from="85640909#2" to="-85640909#2"/>
    <trip id="34" depart="60.00" from="-37850957#0" to="37850958#0"/>
    <trip id="35" depart="61.00" from="26586627#0.146" to="37850957#0"/>
    <trip id="36" depart="62.00" from="26586627#0.146" to="37850957#0"/>
    <trip id="37" depart="64.00" from="-37850957#0" to="37850957#0"/>
    <trip id="38" depart="67.00" from="-37850958#2" to="-85640909#2"/>
    <trip id="39" depart="69.00" from="-37850957#0" to="-26586627#2"/>
    <trip id="40" depart="69.00" from="-37850957#0" to="-85640909#2"/>
    <trip id="41" depart="70.00" from="-37850957#0" to="37850957#0"/>
    <trip id="42" depart="77.00" from="85640909#2" to="37850958#0"/>
    <trip id="43" depart="79.00" from="-37850957#0" to="-85640909#2"/>
    <trip id="44" depart="81.00" from="-37850958#2" to="37850958#0"/>
    <trip id="45" depart="82.00" from="-37850958#2" to="37850958#0"/>
    <trip id="46" depart="82.00" from="-37850957#0" to="-26586627#2"/>
    <trip id="47" depart="82.00" from="26586627#0.146" to="37850958#0"/>
    <trip id="48" depart="83.00" from="26586627#0.146" to="37850958#0"/>
    <trip id="49" depart="83.00" from="85640909#2" to="-85640909#2"/>
    <trip id="50" depart="84.00" from="26586627#0.146" to="-26586627#2"/>
    <trip id="51" depart="89.00" from="-37850957#0" to="37850958#0"/>
    <trip id="52" depart="96.00" from="-37850957#0" to="37850957#0"/>
    <trip id="53" depart="96.00" from="85640909#2" to="-26586627#2"/>
    <trip id="54" depart="98.00" from="26586627#0.146" to="-85640909#2"/>
    <trip id="55" depart="98.00" from="85640909#2" to="37850958#0"/>
    <trip id="56" depart="99.00" from="85640909#2" to="37850958#0"/>
    <trip id="57" depart="101.00" from="85640909#2" to="37850958#0"/>
    <trip id="58" depart="104.00" from="26586627#0.146" to="37850957#0"/>
    <trip id="59" depart="105.00" from="26586627#0.146" to="-85640909#2"/>
    <trip id="60" depart="107.00" from="26586627#0.146" to="37850957#0"/>
    <trip id="61" depart="107.00" from="-37850957#0" to="37850958#0"/>
    <trip id="62" depart="109.00" from="85640909#2" to="-26586627#2"/>
    <trip id="63" depart="112.00" from="26586627#0.146" to="-26586627#2"/>
    <trip id="64" depart="113.00" from="-37850957#0" to="-85640909#2"/>
    <trip id="65" depart="114.00" from="85640909#2" to="-85640909#2"/>
    <trip id="66" depart="119.00" from="-37850958#2" to="37850957#0"/>
    <trip id="67" depart="122.00" from="-37850957#0" to="-85640909#2"/>
    <trip id="68" depart="123.00" from="85640909#2" to="-26586627#2"/>
    <trip id="69" depart="126.00" from="-37850958#2" to="-26586627#2"/>
    <trip id="70" depart="127.00" from="26586627#0.146" to="-85640909#2"/>
    <trip id="71" depart="131.00" from="85640909#2" to="-85640909#2"/>
    <trip id="72" depart="134.00" from="-37850957#0" to="-26586627#2"/>
    <trip id="73" depart="135.00" from="26586627#0.146" to="-85640909#2"/>
    <trip id="74" depart="136.00" from="26586627#0.146" to="37850957#0"/>
    <trip id="75" depart="141.00" from="-37850957#0" to="-85640909#2"/>
    <trip id="76" depart="143.00" from="85640909#2" to="37850958#0"/>
    <trip id="77" depart="151.00" from="-37850957#0" to="37850957#0"/>
    <trip id="78" depart="153.00" from="-37850958#2" to="37850958#0"/>
    <trip id="79" depart="154.00" from="85640909#2" to="37850957#0"/>
    <trip id="80" depart="154.00" from="85640909#2" to="-85640909#2"/>
    <trip id="81" depart="154.00" from="-37850958#2" to="37850958#0"/>
    <trip id="82" depart="155.00" from="-37850957#0" to="37850958#0"/>
    <trip id="83" depart="158.00" from="-37850957#0" to="37850957#0"/>
    <trip id="84" depart="160.00" from="-37850958#2" to="37850958#0"/>
    <trip id="85" depart="161.00" from="85640909#2" to="37850958#0"/>
    <trip id="86" depart="166.00" from="-37850957#0" to="37850958#0"/>
    <trip id="87" depart="167.00" from="26586627#0.146" to="-26586627#2"/>
    <trip id="88" depart="168.00" from="-37850958#2" to="-85640909#2"/>
    <trip id="89" depart="170.00" from="26586627#0.146" to="-85640909#2"/>
    <trip id="90" depart="171.00" from="-37850958#2" to="-85640909#2"/>
    <trip id="91" depart="173.00" from="85640909#2" to="37850957#0"/>
    <trip id="92" depart="182.00" from="-37850957#0" to="37850958#0"/>
    <trip id="93" depart="184.00" from="26586627#0.146" to="-85640909#2"/>
    <trip id="94" depart="184.00" from="26586627#0.146" to="37850957#0"/>
    <trip id="95" depart="187.00" from="-37850957#0" to="37850958#0"/>
    <trip id="96" depart="188.00" from="-37850957#0" to="-85640909#2"/>
    <trip id="97" depart="190.00" from="-37850958#2" to="-26586627#2"/>
    <trip id="98" depart="193.00" from="-37850957#0" to="-26586627#2"/>
    <trip id="99" depart="194.00" from="-37850957#0" to="-85640909#2"/>
    <trip id="100" depart="201.00" from="-37850957#0" to="37850958#0"/>
    <trip id="101" depart="201.00" from="26586627#0.146" to="-85640909#2"/>
    <trip id="102" depart="203.00" from="-37850957#0" to="-26586627#2"/>
    <trip id="103" depart="204.00" from="-37850957#0" to="-85640909#2"/>
    <trip id="104" depart="208.00" from="-37850958#2" to="37850958#0"/>
    <trip id="105" depart="213.00" from="85640909#2" to="-26586627#2"/>
    <trip id="106" depart="213.00" from="85640909#2" to="-85640909#2"/>
    <trip id="107" depart="215.00" from="26586627#0.146" to="37850957#0"/>
    <trip id="108" depart="215.00" from="85640909#2" to="37850957#0"/>
    <trip id="109" depart="227.00" from="26586627#0.146" to="-26586627#2"/>
    <trip id="110" depart="230.00" from="26586627#0.146" to="37850958#0"/>
    <trip id="111" depart="231.00" from="26586627#0.146" to="-85640909#2"/>
    <trip id="112" depart="231.00" from="85640909#2" to="37850958#0"/>
    <trip id="113" depart="231.00" from="85640909#2" to="-85640909#2"/>
    <trip id="114" depart="233.00" from="26586627#0.146" to="37850958#0"/>
    <trip id="115" depart="234.00" from="26586627#0.146" to="-26586627#2"/>
    <trip id="116" depart="237.00" from="26586627#0.146" to="-85640909#2"/>
    <trip id="117" depart="238.00" from="-37850957#0" to="-26586627#2"/>
    <trip id="118" depart="240.00" from="85640909#2" to="37850958#0"/>
    <trip id="119" depart="242.00" from="26586627#0.146" to="-85640909#2"/>
    <trip id="120" depart="244.00" from="-37850957#0" to="37850958#0"/>
    <trip id="121" depart="245.00" from="26586627#0.146" to="-85640909#2"/>
    <trip id="122" depart="246.00" from="-37850957#0" to="-26586627#2"/>
    <trip id="123" depart="249.00" from="-37850958#2" to="-26586627#2"/>
    <trip id="124" depart="249.00" from="85640909#2" to="37850958#0"/>
    <trip id="125" depart="251.00" from="26586627#0.146" to="-85640909#2"/>
    <trip id="126" depart="252.00" from="-37850958#2" to="-85640909#2"/>
    <trip id="127" depart="252.00" from="85640909#2" to="-85640909#2"/>
    <trip id="128" depart="253.00" from="-37850958#2" to="-85640909#2"/>
    <trip id="129" depart="255.00" from="-37850957#0" to="-26586627#2"/>
    <trip id="130" depart="260.00" from="26586627#0.146" to="-26586627#2"/>
    <trip id="131" depart="261.00" from="26586627#0.146" to="37850958#0"/>
    <trip id="132" depart="263.00" from="-37850957#0" to="37850958#0"/>
    <trip id="133" depart="268.00" from="-37850957#0" to="-85640909#2"/>
    <trip id="134" depart="268.00" from="-37850958#2" to="37850958#0"/>
    <trip id="135" depart="269.00" from="26586627#0.146" to="37850957#0"/>
    <trip id="136" depart="270.00" from="26586627#0.146" to="-26586627#2"/>
    <trip id="137" depart="274.00" from="-37850957#0" to="37850958#0"/>
    <trip id="138" depart="276.00" from="26586627#0.146" to="37850958#0"/>
    <trip id="139" depart="278.00" from="-37850957#0" to="37850957#0"/>
    <trip id="140" depart="279.00" from="-37850958#2" to="-85640909#2"/>
    <trip id="141" depart="281.00" from="-37850957#0" to="-26586627#2"/>
    <trip id="142" depart="282.00" from="-37850957#0" to="-26586627#2"/>
    <trip id="143" depart="284.00" from="-37850958#2" to="37850958#0"/>
    <trip id="144" depart="285.00" from="26586627#0.146" to="-26586627#2"/>
    <trip id="145" depart="289.00" from="-37850958#2" to="37850957#0"/>
    <trip id="146" depart="289.00" from="-37850957#0" to="37850958#0"/>
    <trip id="147" depart="296.00" from="85640909#2" to="-26586627#2"/>
    <trip id="148" depart="297.00" from="-37850957#0" to="-26586627#2"/>
    <trip id="149" depart="299.00" from="-37850957#0" to="-26586627#2"/>
    <trip id="150" depart="306.00" from="26586627#0.146" to="-85640909#2"/>
    <trip id="151" depart="306.00" from="26586627#0.146" to="37850957#0"/>
    <trip id="152" depart="307.00" from="-37850957#0" to="-85640909#2"/>
    <trip id="153" depart="308.00" from="-37850958#2" to="-85640909#2"/>
    <trip id="154" depart="309.00" from="-37850957#0" to="-85640909#2"/>
    <trip id="155" depart="311.00" from="26586627#0.146" to="37850958#0"/>
    <trip id="156" depart="311.00" from="85640909#2" to="-85640909#2"/>
    <trip id="157" depart="311.00" from="85640909#2" to="-85640909#2"/>
    <trip id="158" depart="312.00" from="-37850958#2" to="37850958#0"/>
    <trip id="159" depart="315.00" from="-37850957#0" to="-26586627#2"/>
    <trip id="160" depart="317.00" from="85640909#2" to="-26586627#2"/>
    <trip id="161" depart="318.00" from="26586627#0.146" to="-26586627#2"/>
    <trip id="162" depart="322.00" from="26586627#0.146" to="37850957#0"/>
    <trip id="163" depart="323.00" from="-37850957#0" to="-26586627#2"/>
    <trip id="164" depart="323.00" from="-37850957#0" to="-26586627#2"/>
    <trip id="165" depart="323.00" from="85640909#2" to="37850958#0"/>
    <trip id="166" depart="324.00" from="-37850957#0" to="37850957#0"/>
    <trip id="167" depart="325.00" from="-37850957#0" to="37850958#0"/>
    <trip id="168" depart="326.00" from="85640909#2" to="37850957#0"/>
    <trip id="169" depart="327.00" from="-37850957#0" to="-26586627#2"/>
    <trip id="170" depart="332.00" from="85640909#2" to="37850957#0"/>
    <trip id="171" depart="333.00" from="85640909#2" to="37850957#0"/>
    <trip id="172" depart="337.00" from="-37850957#0" to="-26586627#2"/>
    <trip id="173" depart="341.00" from="85640909#2" to="37850957#0"/>
    <trip id="174" depart="342.00" from="85640909#2" to="-26586627#2"/>
    <trip id="175" depart="345.00" from="26586627#0.146" to="37850958#0"/>
    <trip id="176" depart="349.00" from="-37850957#0" to="37850958#0"/>
    <trip id="177" depart="351.00" from="-37850957#0" to="-26586627#2"/>
    <trip id="178" depart="353.00" from="26586627#0.146" to="37850958#0"/>
    <trip id="179" depart="355.00" from="26586627#0.146" to="-85640909#2"/>
    <trip id="180" depart="360.00" from="-37850957#0" to="-85640909#2"/>
    <trip id="181" depart="364.00" from="-37850957#0" to="-85640909#2"/>
    <trip id="182" depart="365.00" from="-37850958#2" to="-26586627#2"/>
    <trip id="183" depart="368.00" from="26586627#0.146" to="-26586627#2"/>
    <trip id="184" depart="369.00" from="-37850957#0" to="37850957#0"/>
    <trip id="185" depart="375.00" from="26586627#0.146" to="-85640909#2"/>
    <trip id="186" depart="375.00" from="85640909#2" to="37850958#0"/>
    <trip id="187" depart="377.00" from="26586627#0.146" to="37850957#0"/>
    <trip id="188" depart="379.00" from="26586627#0.146" to="37850958#0"/>
    <trip id="189" depart="380.00" from="26586627#0.146" to="37850958#0"/>
    <trip id="190" depart="382.00" from="-37850957#0" to="-26586627#2"/>
    <trip id="191" depart="383.00" from="26586627#0.146" to="37850957#0"/>
    <trip id="192" depart="383.00" from="-37850957#0" to="37850958#0"/>
    <trip id="193" depart="384.00" from="-37850957#0" to="-26586627#2"/>
    <trip id="194" depart="385.00" from="-37850958#2" to="-26586627#2"/>
    <trip id="195" depart="385.00" from="-37850957#0" to="-85640909#2"/>
    <trip id="196" depart="386.00" from="-37850957#0" to="-26586627#2"/>
    <trip id="197" depart="386.00" from="-37850957#0" to="-85640909#2"/>
    <trip id="198" depart="387.00" from="-37850957#0" to="37850958#0"/>
    <trip id="199" depart="388.00" from="85640909#2" to="37850958#0"/>
    <trip id="200" depart="389.00" from="-37850957#0" to="-85640909#2"/>
    <trip id="201" depart="390.00" from="85640909#2" to="-26586627#2"/>
    <trip id="202" depart="392.00" from="26586627#0.146" to="-26586627#2"/>
    <trip id="203" depart="397.00" from="26586627#0.146" to="37850958#0"/>
    <trip id="204" depart="397.00" from="85640909#2" to="-26586627#2"/>
    <trip id="205" depart="398.00" from="26586627#0.146" to="-85640909#2"/>
    <trip id="206" depart="398.00" from="85640909#2" to="37850957#0"/>
    <trip id="207" depart="400.00" from="-37850957#0" to="-85640909#2"/>
    <trip id="208" depart="401.00" from="26586627#0.146" to="-26586627#2"/>
    <trip id="209" depart="401.00" from="-37850958#2" to="37850957#0"/>
    <trip id="210" depart="403.00" from="-37850957#0" to="-85640909#2"/>
    <trip id="211" depart="406.00" from="-37850958#2" to="37850957#0"/>
    <trip id="212" depart="409.00" from="-37850957#0" to="-26586627#2"/>
    <trip id="213" depart="410.00" from="26586627#0.146" to="-85640909#2"/>
    <trip id="214" depart="411.00" from="-37850958#2" to="-85640909#2"/>
    <trip id="215" depart="414.00" from="26586627#0.146" to="37850957#0"/>
    <trip id="216" depart="416.00" from="-37850957#0" to="-26586627#2"/>
    <trip id="217" depart="417.00" from="-37850958#2" to="-85640909#2"/>
    <trip id="218" depart="421.00" from="26586627#0.146" to="-26586627#2"/>
    <trip id="219" depart="429.00" from="26586627#0.146" to="37850957#0"/>
    <trip id="220" depart="433.00" from="26586627#0.146" to="37850958#0"/>
    <trip id="221" depart="433.00" from="-37850957#0" to="-26586627#2"/>
    <trip id="222" depart="434.00" from="26586627#0.146" to="-26586627#2"/>
    <trip id="223" depart="438.00" from="26586627#0.146" to="37850958#0"/>
    <trip id="224" depart="439.00" from="-37850957#0" to="-26586627#2"/>
    <trip id="225" depart="440.00" from="26586627#0.146" to="37850958#0"/>
    <trip id="226" depart="441.00" from="-37850957#0" to="-26586627#2"/>
    <trip id="227" depart="443.00" from="-37850957#0" to="37850958#0"/>
    <trip id="228" depart="446.00" from="-37850957#0" to="37850958#0"/>
    <trip id="229" depart="447.00" from="-37850957#0" to="-85640909#2"/>
    <trip id="230" depart="447.00" from="-37850957#0" to="37850957#0"/>
    <trip id="231" depart="448.00" from="-37850957#0" to="37850957#0"/>
    <trip id="232" depart="448.00" from="26586627#0.146" to="-26586627#2"/>
    <trip id="233" depart="449.00" from="85640909#2" to="-85640909#2"/>
    <trip id="234" depart="452.00" from="-37850957#0" to="-85640909#2"/>
    <trip id="235" depart="452.00" from="-37850957#0" to="37850957#0"/>
    <trip id="236" depart="453.00" from="-37850957#0" to="-85640909#2"/>
    <trip id="237" depart="458.00" from="-37850957#0" to="-26586627#2"/>
    <trip id="238" depart="458.00" from="-37850958#2" to="37850957#0"/>
    <trip id="239" depart="458.00" from="-37850958#2" to="37850958#0"/>
    <trip id="240" depart="460.00" from="26586627#0.146" to="37850957#0"/>
    <trip id="241" depart="461.00" from="-37850958#2" to="-85640909#2"/>
    <trip id="242" depart="462.00" from="-37850957#0" to="-26586627#2"/>
    <trip id="243" depart="462.00" from="26586627#0.146" to="37850957#0"/>
    <trip id="244" depart="466.00" from="26586627#0.146" to="-26586627#2"/>
    <trip id="245" depart="477.00" from="26586627#0.146" to="-85640909#2"/>
    <trip id="246" depart="478.00" from="-37850957#0" to="-85640909#2"/>
    <trip id="247" depart="482.00" from="26586627#0.146" to="37850957#0"/>
    <trip id="248" depart="484.00" from="85640909#2" to="37850958#0"/>
    <trip id="249" depart="487.00" from="26586627#0.146" to="-26586627#2"/>
    <trip id="250" depart="491.00" from="-37850958#2" to="37850958#0"/>
    <trip id="251" depart="496.00" from="85640909#2" to="-26586627#2"/>
    <trip id="252" depart="502.00" from="-37850958#2" to="37850957#0"/>
    <trip id="253" depart="505.00" from="-37850958#2" to="-26586627#2"/>
    <trip id="254" depart="506.00" from="85640909#2" to="-26586627#2"/>
    <trip id="255" depart="510.00" from="26586627#0.146" to="37850958#0"/>
    <trip id="256" depart="513.00" from="-37850958#2" to="37850957#0"/>
    <trip id="257" depart="519.00" from="-37850958#2" to="37850957#0"/>
    <trip id="258" depart="519.00" from="-37850958#2" to="37850958#0"/>
    <trip id="259" depart="523.00" from="26586627#0.146" to="37850958#0"/>
    <trip id="260" depart="523.00" from="26586627#0.146" to="37850957#0"/>
    <trip id="261" depart="525.00" from="-37850957#0" to="37850957#0"/>
    <trip id="262" depart="525.00" from="26586627#0.146" to="-85640909#2"/>
    <trip id="263" depart="525.00" from="-37850957#0" to="37850958#0"/>
    <trip id="264" depart="528.00" from="26586627#0.146" to="37850958#0"/>
    <trip id="265" depart="528.00" from="26586627#0.146" to="37850958#0"/>
    <trip id="266" depart="531.00" from="-37850957#0" to="37850957#0"/>
    <trip id="267" depart="539.00" from="-37850958#2" to="-26586627#2"/>
    <trip id="268" depart="541.00" from="26586627#0.146" to="-26586627#2"/>
    <trip id="269" depart="548.00" from="-37850957#0" to="37850958#0"/>
    <trip id="270" depart="549.00" from="-37850957#0" to="-26586627#2"/>
    <trip id="271" depart="552.00" from="-37850958#2" to="37850958#0"/>
    <trip id="272" depart="554.00" from="26586627#0.146" to="37850957#0"/>
    <trip id="273" depart="555.00" from="85640909#2" to="37850957#0"/>
    <trip id="274" depart="555.00" from="85640909#2" to="37850958#0"/>
    <trip id="275" depart="555.00" from="-37850957#0" to="-85640909#2"/>
    <trip id="276" depart="555.00" from="-37850957#0" to="37850957#0"/>
    <trip id="277" depart="556.00" from="26586627#0.146" to="37850957#0"/>
    <trip id="278" depart="557.00" from="-37850957#0" to="37850957#0"/>
    <trip id="279" depart="558.00" from="-37850957#0" to="-26586627#2"/>
    <trip id="280" depart="558.00" from="85640909#2" to="-26586627#2"/>
    <trip id="281" depart="560.00" from="-37850957#0" to="-85640909#2"/>
    <trip id="282" depart="560.00" from="26586627#0.146" to="37850958#0"/>
    <trip id="283" depart="561.00" from="-37850958#2" to="37850957#0"/>
    <trip id="284" depart="562.00" from="-37850957#0" to="37850958#0"/>
    <trip id="285" depart="565.00" from="26586627#0.146" to="37850957#0"/>
    <trip id="286" depart="571.00" from="26586627#0.146" to="37850957#0"/>
    <trip id="287" depart="573.00" from="26586627#0.146" to="-85640909#2"/>
    <trip id="288" depart="576.00" from="-37850958#2" to="37850957#0"/>
    <trip id="289" depart="577.00" from="26586627#0.146" to="-85640909#2"/>
    <trip id="290" depart="577.00" from="26586627#0.146" to="37850957#0"/>
    <trip id="291" depart="577.00" from="26586627#0.146" to="-26586627#2"/>
    <trip id="292" depart="582.00" from="-37850957#0" to="-85640909#2"/>
    <trip id="293" depart="586.00" from="85640909#2" to="37850957#0"/>
    <trip id="294" depart="586.00" from="26586627#0.146" to="37850957#0"/>
    <trip id="295" depart="587.00" from="-37850958#2" to="37850957#0"/>
    <trip id="296" depart="591.00" from="-37850958#2" to="-85640909#2"/>
    <trip id="297" depart="593.00" from="85640909#2" to="37850958#0"/>
    <trip id="298" depart="594.00" from="26586627#0.146" to="37850957#0"/>
    <trip id="299" depart="598.00" from="85640909#2" to="37850957#0"/>
    <trip id="300" depart="599.00" from="85640909#2" to="37850957#0"/>
    <trip id="301" depart="600.00" from="-37850957#0" to="-85640909#2"/>
    <trip id="302" depart="600.00" from="26586627#0.146" to="-85640909#2"/>
    <trip id="303" depart="600.00" from="-37850957#0" to="37850957#0"/>
    <trip id="304" depart="601.00" from="26586627#0.146" to="-85640909#2"/>
    <trip id="305" depart="602.00" from="85640909#2" to="-26586627#2"/>
    <trip id="306" depart="604.00" from="-37850957#0" to="-26586627#2"/>
    <trip id="307" depart="607.00" from="85640909#2" to="37850957#0"/>
    <trip id="308" depart="608.00" from="26586627#0.146" to="-26586627#2"/>
    <trip id="309" depart="609.00" from="26586627#0.146" to="-26586627#2"/>
    <trip id="310" depart="609.00" from="26586627#0.146" to="-85640909#2"/>
    <trip id="311" depart="611.00" from="-37850957#0" to="37850957#0"/>
    <trip id="312" depart="612.00" from="-37850958#2" to="37850957#0"/>
    <trip id="313" depart="616.00" from="-37850957#0" to="-85640909#2"/>
    <trip id="314" depart="617.00" from="-37850957#0" to="37850958#0"/>
    <trip id="315" depart="628.00" from="26586627#0.146" to="-26586627#2"/>
    <trip id="316" depart="632.00" from="-37850957#0" to="37850957#0"/>
    <trip id="317" depart="633.00" from="-37850957#0" to="-85640909#2"/>
    <trip id="318" depart="634.00" from="-37850957#0" to="-26586627#2"/>
    <trip id="319" depart="635.00" from="-37850957#0" to="-85640909#2"/>
    <trip id="320" depart="635.00" from="-37850957#0" to="-85640909#2"/>
    <trip id="321" depart="638.00" from="85640909#2" to="37850957#0"/>
    <trip id="322" depart="649.00" from="26586627#0.146" to="-26586627#2"/>
    <trip id="323" depart="651.00" from="26586627#0.146" to="-85640909#2"/>
    <trip id="324" depart="653.00" from="26586627#0.146" to="37850958#0"/>
    <trip id="325" depart="656.00" from="-37850957#0" to="37850957#0"/>
    <trip id="326" depart="661.00" from="-37850958#2" to="-26586627#2"/>
    <trip id="327" depart="661.00" from="-37850957#0" to="37850958#0"/>
    <trip id="328" depart="663.00" from="85640909#2" to="37850957#0"/>
    <trip id="329" depart="665.00" from="-37850957#0" to="37850957#0"/>
    <trip id="330" depart="665.00" from="26586627#0.146" to="-26586627#2"/>
    <trip id="331" depart="667.00" from="-37850958#2" to="-85640909#2"/>
    <trip id="332" depart="667.00" from="26586627#0.146" to="37850958#0"/>
    <trip id="333" depart="667.00" from="26586627#0.146" to="37850957#0"/>
    <trip id="334" depart="668.00" from="-37850957#0" to="-26586627#2"/>
    <trip id="335" depart="669.00" from="-37850957#0" to="-26586627#2"/>
    <trip id="336" depart="674.00" from="26586627#0.146" to="-85640909#2"/>
    <trip id="337" depart="674.00" from="-37850958#2" to="-26586627#2"/>
    <trip id="338" depart="674.00" from="26586627#0.146" to="-85640909#2"/>
    <trip id="339" depart="676.00" from="26586627#0.146" to="37850957#0"/>
    <trip id="340" depart="676.00" from="-37850957#0" to="-85640909#2"/>
    <trip id="341" depart="677.00" from="-37850958#2" to="37850958#0"/>
    <trip id="342" depart="678.00" from="85640909#2" to="37850958#0"/>
    <trip id="343" depart="679.00" from="26586627#0.146" to="-85640909#2"/>
    <trip id="344" depart="680.00" from="-37850957#0" to="-26586627#2"/>
    <trip id="345" depart="681.00" from="26586627#0.146" to="37850957#0"/>
    <trip id="346" depart="689.00" from="85640909#2" to="-26586627#2"/>
    <trip id="347" depart="692.00" from="-37850957#0" to="-26586627#2"/>
    <trip id="348" depart="692.00" from="85640909#2" to="-26586627#2"/>
    <trip id="349" depart="693.00" from="85640909#2" to="-26586627#2"/>
    <trip id="350" depart="694.00" from="26586627#0.146" to="-26586627#2"/>
    <trip id="351" depart="694.00" from="-37850957#0" to="-85640909#2"/>
    <trip id="352" depart="695.00" from="-37850958#2" to="37850958#0"/>
    <trip id="353" depart="695.00" from="26586627#0.146" to="-26586627#2"/>
    <trip id="354" depart="698.00" from="26586627#0.146" to="-26586627#2"/>
    <trip id="355" depart="700.00" from="85640909#2" to="-85640909#2"/>
    <trip id="356" depart="705.00" from="26586627#0.146" to="37850958#0"/>
    <trip id="357" depart="706.00" from="26586627#0.146" to="37850957#0"/>
    <trip id="358" depart="708.00" from="85640909#2" to="-85640909#2"/>
    <trip id="359" depart="710.00" from="-37850958#2" to="-85640909#2"/>
    <trip id="360" depart="714.00" from="85640909#2" to="37850958#0"/>
    <trip id="361" depart="718.00" from="-37850957#0" to="-85640909#2"/>
    <trip id="362" depart="720.00" from="-37850957#0" to="-85640909#2"/>
    <trip id="363" depart="722.00" from="-37850958#2" to="-26586627#2"/>
    <trip id="364" depart="723.00" from="-37850957#0" to="37850958#0"/>
    <trip id="365" depart="723.00" from="-37850958#2" to="-85640909#2"/>
    <trip id="366" depart="725.00" from="-37850957#0" to="37850958#0"/>
    <trip id="367" depart="726.00" from="-37850957#0" to="-26586627#2"/>
    <trip id="368" depart="727.00" from="-37850957#0" to="37850957#0"/>
    <trip id="369" depart="729.00" from="85640909#2" to="37850957#0"/>
    <trip id="370" depart="733.00" from="-37850957#0" to="-85640909#2"/>
    <trip id="371" depart="733.00" from="85640909#2" to="37850958#0"/>
    <trip id="372" depart="735.00" from="26586627#0.146" to="37850957#0"/>
    <trip id="373" depart="746.00" from="-37850957#0" to="37850958#0"/>
    <trip id="374" depart="746.00" from="26586627#0.146" to="37850957#0"/>
    <trip id="375" depart="756.00" from="-37850958#2" to="37850957#0"/>
    <trip id="376" depart="760.00" from="85640909#2" to="37850957#0"/>
    <trip id="377" depart="761.00" from="-37850957#0" to="37850958#0"/>
    <trip id="378" depart="762.00" from="-37850957#0" to="-26586627#2"/>
    <trip id="379" depart="762.00" from="26586627#0.146" to="37850958#0"/>
    <trip id="380" depart="763.00" from="85640909#2" to="-85640909#2"/>
    <trip id="381" depart="763.00" from="85640909#2" to="-85640909#2"/>
    <trip id="382" depart="764.00" from="26586627#0.146" to="-26586627#2"/>
    <trip id="383" depart="769.00" from="-37850957#0" to="37850957#0"/>
    <trip id="384" depart="770.00" from="-37850957#0" to="-26586627#2"/>
    <trip id="385" depart="770.00" from="-37850957#0" to="-26586627#2"/>
    <trip id="386" depart="772.00" from="26586627#0.146" to="-26586627#2"/>
    <trip id="387" depart="775.00" from="-37850957#0" to="-85640909#2"/>
    <trip id="388" depart="783.00" from="26586627#0.146" to="-85640909#2"/>
    <trip id="389" depart="787.00" from="-37850957#0" to="-85640909#2"/>
    <trip id="390" depart="788.00" from="26586627#0.146" to="-85640909#2"/>
    <trip id="391" depart="788.00" from="26586627#0.146" to="37850958#0"/>
    <trip id="392" depart="791.00" from="26586627#0.146" to="-26586627#2"/>
    <trip id="393" depart="792.00" from="26586627#0.146" to="37850957#0"/>
    <trip id="394" depart="794.00" from="26586627#0.146" to="37850958#0"/>
    <trip id="395" depart="795.00" from="26586627#0.146" to="-26586627#2"/>
    <trip id="396" depart="795.00" from="-37850958#2" to="-26586627#2"/>
    <trip id="397" depart="800.00" from="-37850957#0" to="37850958#0"/>
    <trip id="398" depart="801.00" from="85640909#2" to="-85640909#2"/>
    <trip id="399" depart="801.00" from="26586627#0.146" to="37850957#0"/>
    <trip id="400" depart="806.00" from="-37850958#2" to="-85640909#2"/>
    <trip id="401" depart="807.00" from="-37850957#0" to="-26586627#2"/>
    <trip id="402" depart="808.00" from="85640909#2" to="-26586627#2"/>
    <trip id="403" depart="810.00" from="26586627#0.146" to="-85640909#2"/>
    <trip id="404" depart="816.00" from="-37850957#0" to="37850958#0"/>