<?xml version="1.0" encoding="UTF-8"?>
<!-- generated on 2022-06-20 00:07:59.762202 by randomTrips.py UNKNOWN
  options: -n sumo/simulation.net.xml -r sumo/simulation.rou.xml -o sumo/simulation.trips.xml -e 1350 -p 2.002 <doubleminus>random-depart -L <doubleminus>random <doubleminus>angle 30
-->
<routes xmlns:xsi="http://www.w3.org/2001/XMLSchema-instance" xsi:noNamespaceSchemaLocation="http://sumo.dlr.de/xsd/routes_file.xsd">
    <trip id="0" depart="0.00" from="-37850957#0" to="-26586627#2"/>
    <trip id="1" depart="2.00" from="-37850957#0" to="-26586627#2"/>
    <trip id="2" depart="3.00" from="26586627#0.146" to="-85640909#2"/>
    <trip id="3" depart="4.00" from="85640909#2" to="-26586627#2"/>
    <trip id="4" depart="4.00" from="-37850957#0" to="-85640909#2"/>
    <trip id="5" depart="5.00" from="-37850957#0" to="37850958#0"/>
    <trip id="6" depart="6.00" from="-37850957#0" to="37850957#0"/>
    <trip id="7" depart="8.00" from="-37850958#2" to="-85640909#2"/>
    <trip id="8" depart="14.00" from="-37850957#0" to="-26586627#2"/>
    <trip id="9" depart="14.00" from="85640909#2" to="-85640909#2"/>
    <trip id="10" depart="17.00" from="-37850957#0" to="37850957#0"/>
    <trip id="11" depart="23.00" from="-37850957#0" to="-26586627#2"/>
    <trip id="12" depart="25.00" from="85640909#2" to="37850958#0"/>
    <trip id="13" depart="25.00" from="85640909#2" to="37850957#0"/>
    <trip id="14" depart="26.00" from="26586627#0.146" to="-85640909#2"/>
    <trip id="15" depart="33.00" from="-37850957#0" to="37850958#0"/>
    <trip id="16" depart="33.00" from="-37850957#0" to="-26586627#2"/>
    <trip id="17" depart="34.00" from="-37850958#2" to="37850958#0"/>
    <trip id="18" depart="36.00" from="-37850957#0" to="-26586627#2"/>
    <trip id="19" depart="37.00" from="-37850958#2" to="37850958#0"/>
    <trip id="20" depart="37.00" from="85640909#2" to="37850957#0"/>
    <trip id="21" depart="39.00" from="26586627#0.146" to="37850958#0"/>
    <trip id="22" depart="42.00" from="-37850957#0" to="-26586627#2"/>
    <trip id="23" depart="45.00" from="-37850957#0" to="-85640909#2"/>
    <trip id="24" depart="46.00" from="85640909#2" to="-26586627#2"/>
    <trip id="25" depart="49.00" from="-37850958#2" to="-26586627#2"/>
    <trip id="26" depart="49.00" from="-37850958#2" to="37850958#0"/>
    <trip id="27" depart="51.00" from="85640909#2" to="37850958#0"/>
    <trip id="28" depart="51.00" from="26586627#0.146" to="-26586627#2"/>
    <trip id="29" depart="52.00" from="85640909#2" to="-26586627#2"/>
    <trip id="30" depart="57.00" from="-37850957#0" to="-26586627#2"/>
    <trip id="31" depart="60.00" from="-37850958#2" to="37850958#0"/>
    <trip id="32" depart="60.00" from="85640909#2" to="-26586627#2"/>
    <trip id="33" depart="64.00" from="-37850958#2" to="37850957#0"/>
    <trip id="34" depart="65.00" from="-37850957#0" to="37850958#0"/>
    <trip id="35" depart="67.00" from="85640909#2" to="37850957#0"/>
    <trip id="36" depart="67.00" from="-37850958#2" to="-26586627#2"/>
    <trip id="37" depart="68.00" from="-37850957#0" to="37850958#0"/>
    <trip id="38" depart="70.00" from="-37850957#0" to="37850957#0"/>
    <trip id="39" depart="70.00" from="26586627#0.146" to="37850958#0"/>
    <trip id="40" depart="77.00" from="26586627#0.146" to="-85640909#2"/>
    <trip id="41" depart="79.00" from="-37850957#0" to="37850958#0"/>
    <trip id="42" depart="82.00" from="85640909#2" to="-26586627#2"/>
    <trip id="43" depart="83.00" from="26586627#0.146" to="-85640909#2"/>
    <trip id="44" depart="83.00" from="26586627#0.146" to="37850958#0"/>
    <trip id="45" depart="86.00" from="-37850957#0" to="37850958#0"/>
    <trip id="46" depart="87.00" from="-37850957#0" to="37850957#0"/>
    <trip id="47" depart="87.00" from="85640909#2" to="-85640909#2"/>
    <trip id="48" depart="105.00" from="26586627#0.146" to="37850957#0"/>
    <trip id="49" depart="108.00" from="-37850958#2" to="-26586627#2"/>
    <trip id="50" depart="109.00" from="26586627#0.146" to="-85640909#2"/>
    <trip id="51" depart="110.00" from="85640909#2" to="-26586627#2"/>
    <trip id="52" depart="112.00" from="85640909#2" to="-85640909#2"/>
    <trip id="53" depart="114.00" from="85640909#2" to="-85640909#2"/>
    <trip id="54" depart="114.00" from="85640909#2" to="-85640909#2"/>
    <trip id="55" depart="115.00" from="26586627#0.146" to="37850957#0"/>
    <trip id="56" depart="115.00" from="-37850957#0" to="-26586627#2"/>
    <trip id="57" depart="116.00" from="-37850957#0" to="37850958#0"/>
    <trip id="58" depart="116.00" from="-37850957#0" to="-85640909#2"/>
    <trip id="59" depart="118.00" from="26586627#0.146" to="37850957#0"/>
    <trip id="60" depart="127.00" from="-37850958#2" to="-26586627#2"/>
    <trip id="61" depart="128.00" from="26586627#0.146" to="37850958#0"/>
    <trip id="62" depart="129.00" from="85640909#2" to="-26586627#2"/>
    <trip id="63" depart="131.00" from="-37850958#2" to="-85640909#2"/>
    <trip id="64" depart="132.00" from="-37850957#0" to="37850957#0"/>
    <trip id="65" depart="134.00" from="26586627#0.146" to="-26586627#2"/>
    <trip id="66" depart="137.00" from="26586627#0.146" to="-85640909#2"/>
    <trip id="67" depart="138.00" from="85640909#2" to="-26586627#2"/>
    <trip id="68" depart="140.00" from="-37850957#0" to="-85640909#2"/>
    <trip id="69" depart="142.00" from="26586627#0.146" to="-26586627#2"/>
    <trip id="70" depart="144.00" from="-37850957#0" to="37850958#0"/>
    <trip id="71" depart="146.00" from="-37850957#0" to="-26586627#2"/>
    <trip id="72" depart="149.00" from="85640909#2" to="37850957#0"/>
    <trip id="73" depart="150.00" from="-37850958#2" to="-26586627#2"/>
    <trip id="74" depart="153.00" from="26586627#0.146" to="37850958#0"/>
    <trip id="75" depart="154.00" from="26586627#0.146" to="-85640909#2"/>
    <trip id="76" depart="154.00" from="-37850957#0" to="37850957#0"/>
    <trip id="77" depart="156.00" from="-37850958#2" to="-85640909#2"/>
    <trip id="78" depart="159.00" from="85640909#2" to="37850958#0"/>
    <trip id="79" depart="160.00" from="26586627#0.146" to="37850957#0"/>
    <trip id="80" depart="161.00" from="-37850957#0" to="37850958#0"/>
    <trip id="81" depart="163.00" from="-37850958#2" to="37850958#0"/>
    <trip id="82" depart="164.00" from="26586627#0.146" to="-85640909#2"/>
    <trip id="83" depart="164.00" from="-37850957#0" to="37850958#0"/>
    <trip id="84" depart="168.00" from="85640909#2" to="-26586627#2"/>
    <trip id="85" depart="169.00" from="-37850958#2" to="37850957#0"/>
    <trip id="86" depart="169.00" from="-37850958#2" to="37850957#0"/>
    <trip id="87" depart="174.00" from="85640909#2" to="37850957#0"/>
    <trip id="88" depart="175.00" from="26586627#0.146" to="-85640909#2"/>
    <trip id="89" depart="176.00" from="26586627#0.146" to="-26586627#2"/>
    <trip id="90" depart="180.00" from="-37850958#2" to="-26586627#2"/>
    <trip id="91" depart="182.00" from="-37850957#0" to="-85640909#2"/>
    <trip id="92" depart="182.00" from="-37850958#2" to="37850958#0"/>
    <trip id="93" depart="183.00" from="-37850957#0" to="37850958#0"/>
    <trip id="94" depart="185.00" from="-37850958#2" to="-26586627#2"/>
    <trip id="95" depart="185.00" from="-37850957#0" to="-85640909#2"/>
    <trip id="96" depart="187.00" from="26586627#0.146" to="37850958#0"/>
    <trip id="97" depart="189.00" from="26586627#0.146" to="-26586627#2"/>
    <trip id="98" depart="190.00" from="85640909#2" to="-85640909#2"/>
    <trip id="99" depart="193.00" from="26586627#0.146" to="-26586627#2"/>
    <trip id="100" depart="193.00" from="-37850958#2" to="-85640909#2"/>
    <trip id="101" depart="195.00" from="85640909#2" to="37850957#0"/>
    <trip id="102" depart="195.00" from="26586627#0.146" to="-26586627#2"/>
    <trip id="103" depart="200.00" from="85640909#2" to="37850958#0"/>
    <trip id="104" depart="201.00" from="85640909#2" to="37850958#0"/>
    <trip id="105" depart="204.00" from="-37850958#2" to="-26586627#2"/>
    <trip id="106" depart="205.00" from="-37850957#0" to="37850957#0"/>
    <trip id="107" depart="207.00" from="-37850957#0" to="37850958#0"/>
    <trip id="108" depart="210.00" from="85640909#2" to="37850957#0"/>
    <trip id="109" depart="212.00" from="-37850957#0" to="-85640909#2"/>
    <trip id="110" depart="212.00" from="26586627#0.146" to="-26586627#2"/>
    <trip id="111" depart="215.00" from="85640909#2" to="37850957#0"/>
    <trip id="112" depart="220.00" from="-37850958#2" to="37850957#0"/>
    <trip id="113" depart="221.00" from="-37850957#0" to="37850957#0"/>
    <trip id="114" depart="221.00" from="-37850957#0" to="37850957#0"/>
    <trip id="115" depart="225.00" from="-37850957#0" to="-85640909#2"/>
    <trip id="116" depart="225.00" from="-37850957#0" to="-26586627#2"/>
    <trip id="117" depart="226.00" from="85640909#2" to="37850957#0"/>
    <trip id="118" depart="231.00" from="-37850957#0" to="-26586627#2"/>
    <trip id="119" depart="232.00" from="26586627#0.146" to="37850958#0"/>
    <trip id="120" depart="233.00" from="26586627#0.146" to="-85640909#2"/>
    <trip id="121" depart="238.00" from="26586627#0.146" to="-85640909#2"/>
    <trip id="122" depart="249.00" from="-37850957#0" to="37850957#0"/>
    <trip id="123" depart="249.00" from="26586627#0.146" to="-26586627#2"/>
    <trip id="124" depart="253.00" from="26586627#0.146" to="-26586627#2"/>
    <trip id="125" depart="254.00" from="85640909#2" to="37850958#0"/>
    <trip id="126" depart="256.00" from="-37850957#0" to="-26586627#2"/>
    <trip id="127" depart="258.00" from="-37850958#2" to="-26586627#2"/>
    <trip id="128" depart="259.00" from="-37850958#2" to="37850957#0"/>
    <trip id="129" depart="259.00" from="-37850958#2" to="37850958#0"/>
    <trip id="130" depart="261.00" from="-37850957#0" to="-85640909#2"/>
    <trip id="131" depart="262.00" from="-37850957#0" to="-26586627#2"/>
    <trip id="132" depart="263.00" from="26586627#0.146" to="-85640909#2"/>
    <trip id="133" depart="267.00" from="-37850957#0" to="-85640909#2"/>
    <trip id="134" depart="272.00" from="-37850958#2" to="37850958#0"/>
    <trip id="135" depart="275.00" from="26586627#0.146" to="37850958#0"/>
    <trip id="136" depart="275.00" from="-37850958#2" to="-26586627#2"/>
    <trip id="137" depart="277.00" from="26586627#0.146" to="37850958#0"/>
    <trip id="138" depart="277.00" from="-37850958#2" to="-26586627#2"/>
    <trip id="139" depart="278.00" from="85640909#2" to="-85640909#2"/>
    <trip id="140" depart="280.00" from="-37850957#0" to="-85640909#2"/>
    <trip id="141" depart="280.00" from="26586627#0.146" to="37850957#0"/>
    <trip id="142" depart="281.00" from="26586627#0.146" to="37850957#0"/>
    <trip id="143" depart="283.00" from="-37850957#0" to="37850958#0"/>
    <trip id="144" depart="285.00" from="26586627#0.146" to="-85640909#2"/>
    <trip id="145" depart="285.00" from="-37850957#0" to="-26586627#2"/>
    <trip id="146" depart="287.00" from="26586627#0.146" to="37850957#0"/>
    <trip id="147" depart="290.00" from="-37850958#2" to="-85640909#2"/>
    <trip id="148" depart="290.00" from="-37850957#0" to="37850958#0"/>
    <trip id="149" depart="295.00" from="85640909#2" to="37850957#0"/>
    <trip id="150" depart="299.00" from="-37850958#2" to="-85640909#2"/>
    <trip id="151" depart="301.00" from="85640909#2" to="37850957#0"/>
    <trip id="152" depart="304.00" from="26586627#0.146" to="37850958#0"/>
    <trip id="153" depart="313.00" from="-37850957#0" to="37850958#0"/>
    <trip id="154" depart="314.00" from="-37850957#0" to="-26586627#2"/>
    <trip id="155" depart="317.00" from="26586627#0.146" to="37850957#0"/>
    <trip id="156" depart="317.00" from="26586627#0.146" to="37850957#0"/>
    <trip id="157" depart="319.00" from="-37850957#0" to="-26586627#2"/>
    <trip id="158" depart="324.00" from="-37850958#2" to="-26586627#2"/>
    <trip id="159" depart="325.00" from="-37850958#2" to="37850957#0"/>
    <trip id="160" depart="325.00" from="85640909#2" to="-85640909#2"/>
    <trip id="161" depart="326.00" from="85640909#2" to="-85640909#2"/>
    <trip id="162" depart="329.00" from="26586627#0.146" to="37850958#0"/>
    <trip id="163" depart="330.00" from="85640909#2" to="-26586627#2"/>
    <trip id="164" depart="330.00" from="26586627#0.146" to="37850957#0"/>
    <trip id="165" depart="334.00" from="-37850957#0" to="37850958#0"/>
    <trip id="166" depart="336.00" from="85640909#2" to="-26586627#2"/>
    <trip id="167" depart="338.00" from="-37850957#0" to="37850958#0"/>
    <trip id="168" depart="341.00" from="-37850958#2" to="-26586627#2"/>
    <trip id="169" depart="345.00" from="-37850958#2" to="37850958#0"/>
    <trip id="170" depart="347.00" from="-37850957#0" to="37850957#0"/>
    <trip id="171" depart="349.00" from="-37850958#2" to="37850958#0"/>
    <trip id="172" depart="351.00" from="26586627#0.146" to="37850957#0"/>
    <trip id="173" depart="353.00" from="26586627#0.146" to="37850958#0"/>
    <trip id="174" depart="353.00" from="26586627#0.146" to="-26586627#2"/>
    <trip id="175" depart="354.00" from="26586627#0.146" to="37850958#0"/>
    <trip id="176" depart="354.00" from="-37850957#0" to="37850957#0"/>
    <trip id="177" depart="357.00" from="-37850958#2" to="-85640909#2"/>
    <trip id="178" depart="359.00" from="85640909#2" to="37850958#0"/>
    <trip id="179" depart="360.00" from="-37850957#0" to="37850958#0"/>
    <trip id="180" depart="363.00" from="85640909#2" to="37850957#0"/>
    <trip id="181" depart="363.00" from="85640909#2" to="37850958#0"/>
    <trip id="182" depart="368.00" from="26586627#0.146" to="-26586627#2"/>
    <trip id="183" depart="370.00" from="-37850958#2" to="37850958#0"/>
    <trip id="184" depart="370.00" from="26586627#0.146" to="-26586627#2"/>
    <trip id="185" depart="375.00" from="26586627#0.146" to="-26586627#2"/>
    <trip id="186" depart="382.00" from="85640909#2" to="37850957#0"/>
    <trip id="187" depart="383.00" from="-37850957#0" to="37850958#0"/>
    <trip id="188" depart="385.00" from="85640909#2" to="37850957#0"/>
    <trip id="189" depart="387.00" from="-37850957#0" to="37850958#0"/>
    <trip id="190" depart="387.00" from="-37850957#0" to="37850958#0"/>
    <trip id="191" depart="391.00" from="85640909#2" to="37850958#0"/>
    <trip id="192" depart="398.00" from="-37850957#0" to="37850958#0"/>
    <trip id="193" depart="399.00" from="-37850957#0" to="37850958#0"/>
    <trip id="194" depart="401.00" from="85640909#2" to="37850958#0"/>
    <trip id="195" depart="402.00" from="85640909#2" to="-85640909#2"/>
    <trip id="196" depart="406.00" from="85640909#2" to="-26586627#2"/>
    <trip id="197" depart="407.00" from="26586627#0.146" to="37850957#0"/>
    <trip id="198" depart="408.00" from="-37850957#0" to="37850957#0"/>
    <trip id="199" depart="409.00" from="26586627#0.146" to="37850957#0"/>
    <trip id="200" depart="415.00" from="-37850957#0" to="-26586627#2"/>
    <trip id="201" depart="417.00" from="26586627#0.146" to="-85640909#2"/>
    <trip id="202" depart="419.00" from="26586627#0.146" to="37850958#0"/>
    <trip id="203" depart="419.00" from="-37850958#2" to="37850958#0"/>
    <trip id="204" depart="420.00" from="-37850957#0" to="-26586627#2"/>
    <trip id="205" depart="431.00" from="26586627#0.146" to="-26586627#2"/>
    <trip id="206" depart="431.00" from="-37850957#0" to="37850957#0"/>
    <trip id="207" depart="436.00" from="-37850957#0" to="37850958#0"/>
    <trip id="208" depart="437.00" from="85640909#2" to="-26586627#2"/>
    <trip id="209" depart="437.00" from="26586627#0.146" to="37850957#0"/>
    <trip id="210" depart="442.00" from="-37850958#2" to="37850957#0"/>
    <trip id="211" depart="442.00" from="-37850958#2" to="-26586627#2"/>
    <trip id="212" depart="447.00" from="-37850957#0" to="37850958#0"/>
    <trip id="213" depart="450.00" from="26586627#0.146" to="-26586627#2"/>
    <trip id="214" depart="453.00" from="-37850957#0" to="37850957#0"/>
    <trip id="215" depart="455.00" from="-37850957#0" to="37850957#0"/>
    <trip id="216" depart="458.00" from="-37850957#0" to="-26586627#2"/>
    <trip id="217" depart="459.00" from="-37850958#2" to="37850957#0"/>
    <trip id="218" depart="460.00" from="26586627#0.146" to="37850958#0"/>
    <trip id="219" depart="467.00" from="85640909#2" to="37850957#0"/>
    <trip id="220" depart="468.00" from="26586627#0.146" to="-26586627#2"/>
    <trip id="221" depart="469.00" from="-37850957#0" to="-85640909#2"/>
    <trip id="222" depart="470.00" from="-37850957#0" to="37850958#0"/>
    <trip id="223" depart="471.00" from="-37850957#0" to="-85640909#2"/>
    <trip id="224" depart="473.00" from="26586627#0.146" to="37850957#0"/>
    <trip id="225" depart="474.00" from="-37850958#2" to="-26586627#2"/>
    <trip id="226" depart="474.00" from="-37850957#0" to="37850958#0"/>
    <trip id="227" depart="475.00" from="26586627#0.146" to="-85640909#2"/>
    <trip id="228" depart="475.00" from="-37850957#0" to="37850958#0"/>
    <trip id="229" depart="477.00" from="26586627#0.146" to="-85640909#2"/>
    <trip id="230" depart="481.00" from="-37850957#0" to="37850958#0"/>
    <trip id="231" depart="485.00" from="26586627#0.146" to="-26586627#2"/>
    <trip id="232" depart="487.00" from="-37850957#0" to="-26586627#2"/>
    <trip id="233" depart="489.00" from="-37850958#2" to="37850957#0"/>
    <trip id="234" depart="493.00" from="26586627#0.146" to="-85640909#2"/>
    <trip id="235" depart="496.00" from="-37850958#2" to="-26586627#2"/>
    <trip id="236" depart="498.00" from="-37850958#2" to="-85640909#2"/>
    <trip id="237" depart="502.00" from="-37850957#0" to="-85640909#2"/>
    <trip id="238" depart="503.00" from="85640909#2" to="-85640909#2"/>
    <trip id="239" depart="504.00" from="26586627#0.146" to="-26586627#2"/>
    <trip id="240" depart="504.00" from="85640909#2" to="-26586627#2"/>
    <trip id="241" depart="507.00" from="-37850958#2" to="37850958#0"/>
    <trip id="242" depart="514.00" from="26586627#0.146" to="37850958#0"/>
    <trip id="243" depart="514.00" from="85640909#2" to="37850958#0"/>
    <trip id="244" depart="515.00" from="-37850958#2" to="-26586627#2"/>
    <trip id="245" depart="518.00" from="-37850957#0" to="-85640909#2"/>
    <trip id="246" depart="520.00" from="26586627#0.146" to="37850958#0"/>
    <trip id="247" depart="521.00" from="-37850958#2" to="-85640909#2"/>
    <trip id="248" depart="521.00" from="85640909#2" to="37850958#0"/>
    <trip id="249" depart="521.00" from="26586627#0.146" to="37850958#0"/>
    <trip id="250" depart="524.00" from="85640909#2" to="37850957#0"/>
    <trip id="251" depart="526.00" from="26586627#0.146" to="-85640909#2"/>
    <trip id="252" depart="529.00" from="-37850957#0" to="-26586627#2"/>
    <trip id="253" depart="534.00" from="-37850957#0" to="-26586627#2"/>
    <trip id="254" depart="537.00" from="26586627#0.146" to="-26586627#2"/>
    <trip id="255" depart="538.00" from="-37850957#0" to="37850957#0"/>
    <trip id="256" depart="539.00" from="-37850957#0" to="-85640909#2"/>
    <trip id="257" depart="541.00" from="85640909#2" to="-26586627#2"/>
    <trip id="258" depart="550.00" from="26586627#0.146" to="-26586627#2"/>
    <trip id="259" depart="562.00" from="85640909#2" to="37850958#0"/>
    <trip id="260" depart="563.00" from="-37850958#2" to="-85640909#2"/>
    <trip id="261" depart="564.00" from="26586627#0.146" to="-85640909#2"/>
    <trip id="262" depart="567.00" from="26586627#0.146" to="-26586627#2"/>
    <trip id="263" depart="569.00" from="-37850957#0" to="37850957#0"/>
    <trip id="264" depart="570.00" from="-37850957#0" to="-85640909#2"/>
    <trip id="265" depart="571.00" from="85640909#2" to="37850958#0"/>
    <trip id="266" depart="574.00" from="26586627#0.146" to="37850957#0"/>
    <trip id="267" depart="578.00" from="-37850958#2" to="37850957#0"/>
    <trip id="268" depart="579.00" from="-37850957#0" to="37850957#0"/>
    <trip id="269" depart="580.00" from="-37850958#2" to="-26586627#2"/>
    <trip id="270" depart="581.00" from="26586627#0.146" to="-85640909#2"/>
    <trip id="271" depart="581.00" from="26586627#0.146" to="-85640909#2"/>
    <trip id="272" depart="582.00" from="-37850957#0" to="37850958#0"/>
    <trip id="273" depart="587.00" from="26586627#0.146" to="-26586627#2"/>
    <trip id="274" depart="587.00" from="26586627#0.146" to="-85640909#2"/>
    <trip id="275" depart="588.00" from="-37850957#0" to="-85640909#2"/>
    <trip id="276" depart="588.00" from="-37850957#0" to="-85640909#2"/>
    <trip id="277" depart="588.00" from="-37850957#0" to="-26586627#2"/>
    <trip id="278" depart="592.00" from="-37850957#0" to="37850957#0"/>
    <trip id="279" depart="597.00" from="26586627#0.146" to="-26586627#2"/>
    <trip id="280" depart="601.00" from="26586627#0.146" to="-26586627#2"/>
    <trip id="281" depart="605.00" from="-37850958#2" to="-26586627#2"/>
    <trip id="282" depart="605.00" from="26586627#0.146" to="37850957#0"/>
    <trip id="283" depart="613.00" from="26586627#0.146" to="37850958#0"/>
    <trip id="284" depart="614.00" from="26586627#0.146" to="37850957#0"/>
    <trip id="285" depart="616.00" from="85640909#2" to="-26586627#2"/>
    <trip id="286" depart="622.00" from="85640909#2" to="-85640909#2"/>
    <trip id="287" depart="624.00" from="26586627#0.146" to="-26586627#2"/>
    <trip id="288" depart="627.00" from="-37850957#0" to="37850958#0"/>
    <trip id="289" depart="632.00" from="-37850957#0" to="-26586627#2"/>
    <trip id="290" depart="633.00" from="26586627#0.146" to="37850958#0"/>
    <trip id="291" depart="634.00" from="-37850957#0" to="37850958#0"/>
    <trip id="292" depart="635.00" from="-37850958#2" to="-85640909#2"/>
    <trip id="293" depart="636.00" from="85640909#2" to="-85640909#2"/>
    <trip id="294" depart="637.00" from="-37850958#2" to="37850958#0"/>
    <trip id="295" depart="639.00" from="-37850957#0" to="-85640909#2"/>
    <trip id="296" depart="640.00" from="85640909#2" to="-85640909#2"/>
    <trip id="297" depart="641.00" from="26586627#0.146" to="-85640909#2"/>
    <trip id="298" depart="642.00" from="-37850957#0" to="-26586627#2"/>
    <trip id="299" depart="642.00" from="-37850957#0" to="37850958#0"/>
    <trip id="300" depart="642.00" from="26586627#0.146" to="37850958#0"/>
    <trip id="301" depart="643.00" from="26586627#0.146" to="-26586627#2"/>
    <trip id="302" depart="647.00" from="-37850957#0" to="-85640909#2"/>
    <trip id="303" depart="648.00" from="-37850958#2" to="37850958#0"/>
    <trip id="304" depart="651.00" from="26586627#0.146" to="-26586627#2"/>
    <trip id="305" depart="658.00" from="26586627#0.146" to="37850957#0"/>
    <trip id="306" depart="659.00" from="26586627#0.146" to="-26586627#2"/>
    <trip id="307" depart="659.00" from="26586627#0.146" to="37850957#0"/>
    <trip id="308" depart="662.00" from="26586627#0.146" to="37850957#0"/>
    <trip id="309" depart="663.00" from="-37850957#0" to="37850957#0"/>
    <trip id="310" depart="664.00" from="-37850957#0" to="37850957#0"/>
    <trip id="311" depart="665.00" from="85640909#2" to="-85640909#2"/>
    <trip id="312" depart="665.00" from="85640909#2" to="37850957#0"/>
    <trip id="313" depart="665.00" from="-37850957#0" to="37850958#0"/>
    <trip id="314" depart="667.00" from="-37850957#0" to="-85640909#2"/>
    <trip id="315" depart="669.00" from="85640909#2" to="-26586627#2"/>
    <trip id="316" depart="669.00" from="26586627#0.146" to="-85640909#2"/>
    <trip id="317" depart="670.00" from="-37850957#0" to="37850958#0"/>
    <trip id="318" depart="672.00" from="-37850958#2" to="-26586627#2"/>
    <trip id="319" depart="676.00" from="26586627#0.146" to="-26586627#2"/>
    <trip id="320" depart="676.00" from="85640909#2" to="37850957#0"/>
    <trip id="321" depart="680.00" from="-37850957#0" to="37850957#0"/>
    <trip id="322" depart="681.00" from="85640909#2" to="37850957#0"/>
    <trip id="323" depart="682.00" from="-37850957#0" to="37850958#0"/>
    <trip id="324" depart="682.00" from="26586627#0.146" to="37850958#0"/>
    <trip id="325" depart="682.00" from="-37850957#0" to="37850957#0"/>
    <trip id="326" depart="682.00" from="85640909#2" to="-26586627#2"/>
    <trip id="327" depart="682.00" from="26586627#0.146" to="-26586627#2"/>
    <trip id="328" depart="683.00" from="85640909#2" to="-26586627#2"/>
    <trip id="329" depart="684.00" from="-37850958#2" to="-85640909#2"/>
    <trip id="330" depart="686.00" from="-37850957#0" to="37850957#0"/>
    <trip id="331" depart="686.00" from="26586627#0.146" to="-85640909#2"/>
    <trip id="332" depart="689.00" from="-37850958#2" to="37850957#0"/>
    <trip id="333" depart="690.00" from="-37850957#0" to="37850957#0"/>
    <trip id="334" depart="691.00" from="85640909#2" to="-85640909#2"/>
    <trip id="335" depart="693.00" from="26586627#0.146" to="37850957#0"/>
    <trip id="336" depart="695.00" from="-37850957#0" to="37850957#0"/>
    <trip id="337" depart="698.00" from="26586627#0.146" to="37850958#0"/>
    <trip id="338" depart="700.00" from="26586627#0.146" to="-26586627#2"/>
    <trip id="339" depart="700.00" from="-37850957#0" to="37850958#0"/>
    <trip id="340" depart="704.00" from="-37850957#0" to="-26586627#2"/>
    <trip id="341" depart="705.00" from="26586627#0.146" to="-26586627#2"/>
    <trip id="342" depart="711.00" from="85640909#2" to="-26586627#2"/>
    <trip id="343" depart="712.00" from="-37850958#2" to="-85640909#2"/>
    <trip id="344" depart="712.00" from="26586627#0.146" to="-26586627#2"/>
    <trip id="345" depart="714.00" from="-37850957#0" to="-85640909#2"/>
    <trip id="346" depart="714.00" from="-37850957#0" to="-26586627#2"/>
    <trip id="347" depart="718.00" from="-37850957#0" to="37850958#0"/>
    <trip id="348" depart="719.00" from="-37850957#0" to="37850957#0"/>
    <trip id="349" depart="722.00" from="26586627#0.146" to="-26586627#2"/>
    <trip id="350" depart="723.00" from="26586627#0.146" to="37850958#0"/>
    <trip id="351" depart="723.00" from="26586627#0.146" to="37850957#0"/>
    <trip id="352" depart="724.00" from="26586627#0.146" to="-26586627#2"/>
    <trip id="353" depart="724.00" from="-37850957#0" to="37850958#0"/>
    <trip id="354" depart="724.00" from="26586627#0.146" to="-85640909#2"/>
    <trip id="355" depart="727.00" from="-37850957#0" to="37850958#0"/>
    <trip id="356" depart="733.00" from="-37850957#0" to="-85640909#2"/>
    <trip id="357" depart="734.00" from="26586627#0.146" to="-85640909#2"/>
    <trip id="358" depart="734.00" from="-37850957#0" to="37850958#0"/>
    <trip id="359" depart="737.00" from="-37850957#0" to="37850958#0"/>
    <trip id="360" depart="739.00" from="-37850958#2" to="37850957#0"/>
    <trip id="361" depart="740.00" from="85640909#2" to="37850957#0"/>
    <trip id="362" depart="744.00" from="-37850958#2" to="37850958#0"/>
    <trip id="363" depart="748.00" from="26586627#0.146" to="37850958#0"/>
    <trip id="364" depart="750.00" from="26586627#0.146" to="-26586627#2"/>
    <trip id="365" depart="754.00" from="-37850957#0" to="-85640909#2"/>
    <trip id="366" depart="760.00" from="26586627#0.146" to="37850958#0"/>
    <trip id="367" depart="760.00" from="-37850957#0" to="37850957#0"/>
    <trip id="368" depart="763.00" from="26586627#0.146" to="-85640909#2"/>
    <trip id="369" depart="764.00" from="85640909#2" to="-26586627#2"/>
    <trip id="370" depart="765.00" from="-37850957#0" to="37850958#0"/>
    <trip id="371" depart="767.00" from="-37850958#2" to="37850957#0"/>
    <trip id="372" depart="775.00" from="26586627#0.146" to="37850958#0"/>
    <trip id="373" depart="776.00" from="85640909#2" to="37850957#0"/>
    <trip id="374" depart="777.00" from="-37850958#2" to="-26586627#2"/>
    <trip id="375" depart="780.00" from="-37850957#0" to="37850957#0"/>
    <trip id="376" depart="781.00" from="-37850958#2" to="37850957#0"/>
    <trip id="377" depart="784.00" from="85640909#2" to="37850957#0"/>
    <trip id="378" depart="787.00" from="-37850957#0" to="-26586627#2"/>
    <trip id="379" depart="788.00" from="-37850957#0" to="-26586627#2"/>
    <trip id="380" depart="790.00" from="-37850957#0" to="37850957#0"/>
    <trip id="381" depart="793.00" from="85640909#2" to="37850958#0"/>
    <trip id="382" depart="796.00" from="85640909#2" to="-26586627#2"/>
    <trip id="383" depart="798.00" from="-37850957#0" to="-85640909#2"/>
    <trip id="384" depart="800.00" from="85640909#2" to="37850957#0"/>
    <trip id="385" depart="801.00" from="-37850958#2" to="-85640909#2"/>
    <trip id="386" depart="804.00" from="26586627#0.146" to="37850958#0"/>
    <trip id="387" depart="808.00" from="26586627#0.146" to="-85640909#2"/>
    <trip id="388" depart="808.00" from="26586627#0.146" to="37850957#0"/>
    <trip id="389" depart="808.00" from="-37850957#0" to="37850958#0"/>
    <trip id="390" depart="810.00" from="26586627#0.146" to="37850957#0"/>
    <trip id="391" depart="811.00" from="85640909#2" to="37850957#0"/>
    <trip id="392" depart="817.00" from="-37850957#0" to="37850958#0"/>
    <trip id="393" depart="818.00" from="-37850957#0" to="37850957#0"/>
    <trip id="394" depart="819.00" from="85640909#2" to="-85640909#2"/>
    <trip id="395" depart="820.00" from="-37850957#0" to="37850957#0"/>
    <trip id="396" depart="821.00" from="-37850957#0" to="-26586627#2"/>
    <trip id="397" depart="823.00" from="26586627#0.146" to="37850958#0"/>
    <trip id="398" depart="824.00" from="26586627#0.146" to="37850958#0"/>
    <trip id="399" depart="825.00" from="26586627#0.146" to="37850957#0"/>
    <trip id="400" depart="827.00" from="-37850958#2" to="-85640909#2"/>
    <trip id="401" depart="828.00" from="-37850958#2" to="-85640909#2"/>
    <trip id="402" depart="830.00" from="-37850957#0" to="-26586627#2"/>
    <trip id="403" depart="831.00" from="-37850957#0" to="-85640909#2"/>
    <trip id="404" depart="833.00" from="26586627#0.146" to="37850958#0"/>
    <trip id="405" depart="833.00" from="-37850958#2" to="37850958#0"/>